@<TRIPOS>MOLECULE
*****
 55 58 0 0 0
SMALL
USER_CHARGES

@<TRIPOS>ATOM
      1 C1          6.8546   -5.6298   -1.0869 C.ar    1  NONAME1    -0.0088
      2 C2          6.1585   -4.8867   -0.1152 C.ar    1  NONAME1    -0.0132
      3 C3          5.6007   -5.5739    0.9774 C.ar    1  NONAME1    -0.0503
      4 C4          5.7299   -6.9637    1.1040 C.ar    1  NONAME1    -0.0160
      5 C5          6.4562   -7.6667    0.1524 C.ar    1  NONAME1     0.1582
      6 C6          7.0179   -7.0003   -0.9306 C.ar    1  NONAME1     0.1588
      7 C7          6.1428   -3.3970   -0.1571 C.ar    1  NONAME1     0.0032
      8 C8          7.3753   -2.8598   -0.2568 C.ar    1  NONAME1     0.0314
      9 C9          7.6786   -1.4307   -0.1872 C.ar    1  NONAME1     0.3378
     10 O1          6.6325   -0.6005    0.1336 O.2     1  NONAME1    -0.4219
     11 C10         5.3208   -1.1005    0.2622 C.ar    1  NONAME1     0.1466
     12 C11         5.0066   -2.4595    0.0711 C.ar    1  NONAME1     0.0671
     13 C12         4.3743   -0.1165    0.5657 C.ar    1  NONAME1     0.0233
     14 C13         3.0490   -0.4801    0.6870 C.ar    1  NONAME1     0.1271
     15 C14         2.6981   -1.8144    0.4958 C.ar    1  NONAME1     0.0226
     16 C15         3.6397   -2.8018    0.1535 C.ar    1  NONAME1     0.1353
     17 O2          8.8187   -1.0159   -0.3628 O.2     1  NONAME1    -0.2452
     18 O3          7.7752   -7.6870   -1.8368 O.3     1  NONAME1    -0.5033
     19 O4          6.6646   -9.0144    0.2474 O.3     1  NONAME1    -0.5033
     20 O5          3.2169   -4.0508   -0.2386 O.3     1  NONAME1    -0.4885
     21 O6          2.0119    0.3586    0.9828 O.3     1  NONAME1    -0.4949
     22 C16         2.2039    1.7254    0.6342 C.3     1  NONAME1     0.0788
     23 C17         2.1724   -4.6615    0.5327 C.3     1  NONAME1     0.1183
     24 C18         0.8863   -5.0066   -0.2665 C.3     1  NONAME1     0.1239
     25 O7          0.2391   -6.0712    0.4677 O.3     1  NONAME1    -0.3396
     26 C19        -0.9852   -6.4929   -0.1089 C.3     1  NONAME1     0.1854
     27 O8         -1.5019   -7.5660    0.6670 O.3     1  NONAME1    -0.3649
     28 C20        -2.0081   -5.3542   -0.0683 C.3     1  NONAME1     0.1339
     29 O9         -3.2788   -5.7589   -0.5964 O.3     1  NONAME1    -0.3841
     30 C21        -1.4642   -4.2040   -0.8985 C.3     1  NONAME1     0.1141
     31 O10        -2.3348   -3.0629   -0.7974 O.3     1  NONAME1    -0.3864
     32 C22        -0.0653   -3.7982   -0.4249 C.3     1  NONAME1     0.1129
     33 O11         0.4447   -2.8542   -1.3679 O.3     1  NONAME1    -0.3864
     34 H1          7.3171   -5.1440   -1.9425 H       1  NONAME1     0.0661
     35 H2          5.0738   -5.0242    1.7544 H       1  NONAME1     0.0625
     36 H3          5.2832   -7.4632    1.9573 H       1  NONAME1     0.0655
     37 H4          8.2713   -3.4647   -0.3641 H       1  NONAME1     0.0695
     38 H5          4.7054    0.9063    0.7062 H       1  NONAME1     0.0691
     39 H6          1.6457   -2.0464    0.5686 H       1  NONAME1     0.0691
     40 H7          7.8002   -8.6028   -1.4944 H       1  NONAME1     0.2923
     41 H8          6.2183   -9.3351    1.0497 H       1  NONAME1     0.2923
     42 H9          2.9004    2.2098    1.3252 H       1  NONAME1     0.0660
     43 H10         2.5397    1.8306   -0.4034 H       1  NONAME1     0.0660
     44 H11         1.2371    2.2302    0.7238 H       1  NONAME1     0.0660
     45 H12         2.5967   -5.6105    0.8858 H       1  NONAME1     0.0724
     46 H13         1.9335   -4.1188    1.4565 H       1  NONAME1     0.0724
     47 H14         1.1783   -5.3822   -1.2556 H       1  NONAME1     0.0658
     48 H15        -0.8343   -6.8625   -1.1306 H       1  NONAME1     0.0935
     49 H16        -0.8627   -8.2891    0.5481 H       1  NONAME1     0.2126
     50 H17        -2.1881   -5.0257    0.9632 H       1  NONAME1     0.0671
     51 H18        -3.5090   -6.5715   -0.1013 H       1  NONAME1     0.2101
     52 H19        -1.4489   -4.4670   -1.9633 H       1  NONAME1     0.0648
     53 H20        -3.2395   -3.4181   -0.9164 H       1  NONAME1     0.2100
     54 H21        -0.1717   -3.2846    0.5389 H       1  NONAME1     0.0647
     55 H22        -0.2556   -2.1773   -1.4686 H       1  NONAME1     0.2100
@<TRIPOS>BOND
     1     1     2   ar
     2     2     3   ar
     3     3     4   ar
     4     4     5   ar
     5     5     6   ar
     6     1     6   ar
     7     7     8   ar
     8     8     9   ar
     9     9    10   ar
    10    10    11   ar
    11    11    12   ar
    12     7    12   ar
    13    13    14   ar
    14    14    15   ar
    15    15    16   ar
    16    13    11   ar
    17    16    12   ar
    18     9    17    2
    19     7     2    1
    20     6    18    1
    21     5    19    1
    22    16    20    1
    23    14    21    1
    24    22    21    1
    25    24    23    1
    26    24    25    1
    27    26    25    1
    28    26    27    1
    29    28    26    1
    30    28    29    1
    31    28    30    1
    32    30    31    1
    33    30    32    1
    34    32    24    1
    35    32    33    1
    36    20    23    1
    37     1    34    1
    38     3    35    1
    39     4    36    1
    40     8    37    1
    41    13    38    1
    42    15    39    1
    43    18    40    1
    44    19    41    1
    45    22    42    1
    46    22    43    1
    47    22    44    1
    48    23    45    1
    49    23    46    1
    50    24    47    1
    51    26    48    1
    52    27    49    1
    53    28    50    1
    54    29    51    1
    55    30    52    1
    56    31    53    1
    57    32    54    1
    58    33    55    1
