@<TRIPOS>MOLECULE
*****
 34 36 0 0 0
SMALL
USER_CHARGES

@<TRIPOS>ATOM
      1 C1          7.4256   -5.4650   -0.7913 C.ar    1  NONAME1    -0.0088
      2 C2          6.5710   -4.8728    0.1499 C.ar    1  NONAME1    -0.0132
      3 C3          5.9145   -5.6883    1.0898 C.ar    1  NONAME1    -0.0503
      4 C4          6.0976   -7.0751    1.0898 C.ar    1  NONAME1    -0.0160
      5 C5          6.9526   -7.6424    0.1543 C.ar    1  NONAME1     0.1582
      6 C6          7.6111   -6.8409   -0.7751 C.ar    1  NONAME1     0.1588
      7 C7          6.3939   -3.4025    0.1977 C.ar    1  NONAME1     0.0032
      8 C8          7.4910   -2.7199    0.5694 C.ar    1  NONAME1     0.0314
      9 C9          7.5267   -1.2670    0.7635 C.ar    1  NONAME1     0.3378
     10 O1          6.3307   -0.5918    0.6263 O.2     1  NONAME1    -0.4219
     11 C10         5.1585   -1.2619    0.2227 C.ar    1  NONAME1     0.1466
     12 C11         5.1472   -2.6368   -0.0309 C.ar    1  NONAME1     0.0669
     13 C12         4.0274   -0.4490    0.0801 C.ar    1  NONAME1     0.0233
     14 C13         2.8312   -1.0134   -0.3433 C.ar    1  NONAME1     0.1271
     15 C14         2.7936   -2.3771   -0.6398 C.ar    1  NONAME1     0.0224
     16 C15         3.9365   -3.1753   -0.4916 C.ar    1  NONAME1     0.1316
     17 O2          8.5695   -0.6971    1.0619 O.2     1  NONAME1    -0.2452
     18 O3          8.4608   -7.4093   -1.6815 O.3     1  NONAME1    -0.5033
     19 O4          7.1832   -8.9896    0.1092 O.3     1  NONAME1    -0.5033
     20 O5          3.8456   -4.5004   -0.8195 O.3     1  NONAME1    -0.5059
     21 O6          1.6461   -0.3549   -0.5177 O.3     1  NONAME1    -0.4949
     22 C16         1.6189    1.0236   -0.1643 C.3     1  NONAME1     0.0788
     23 H1          7.9491   -4.8654   -1.5302 H       1  NONAME1     0.0661
     24 H2          5.2455   -5.2412    1.8223 H       1  NONAME1     0.0625
     25 H3          5.5712   -7.6804    1.8199 H       1  NONAME1     0.0655
     26 H4          8.4375   -3.2107    0.7750 H       1  NONAME1     0.0695
     27 H5          4.1209    0.6084    0.3024 H       1  NONAME1     0.0691
     28 H6          1.8566   -2.8071   -0.9839 H       1  NONAME1     0.0691
     29 H7          8.4361   -8.3646   -1.4736 H       1  NONAME1     0.2923
     30 H8          6.6501   -9.4097    0.8059 H       1  NONAME1     0.2923
     31 H9          2.9834   -4.6773   -1.2296 H       1  NONAME1     0.2922
     32 H10         2.2858    1.6072   -0.8073 H       1  NONAME1     0.0660
     33 H11         1.8641    1.1662    0.8936 H       1  NONAME1     0.0660
     34 H12         0.5995    1.3890   -0.3216 H       1  NONAME1     0.0660
@<TRIPOS>BOND
     1     1     2   ar
     2     2     3   ar
     3     3     4   ar
     4     4     5   ar
     5     5     6   ar
     6     1     6   ar
     7     7     8   ar
     8     8     9   ar
     9     9    10   ar
    10    10    11   ar
    11    11    12   ar
    12     7    12   ar
    13    13    14   ar
    14    14    15   ar
    15    15    16   ar
    16    13    11   ar
    17    16    12   ar
    18     9    17    2
    19     7     2    1
    20     6    18    1
    21     5    19    1
    22    16    20    1
    23    14    21    1
    24    22    21    1
    25     1    23    1
    26     3    24    1
    27     4    25    1
    28     8    26    1
    29    13    27    1
    30    15    28    1
    31    18    29    1
    32    19    30    1
    33    20    31    1
    34    22    32    1
    35    22    33    1
    36    22    34    1
