@<TRIPOS>MOLECULE
*****
 55 58 0 0 0
SMALL
USER_CHARGES

@<TRIPOS>ATOM
      1 C1          6.6532   -5.3205    0.7926 C.ar    1  NONAME1    -0.0088
      2 C2          5.9823   -4.8035   -0.3248 C.ar    1  NONAME1    -0.0132
      3 C3          5.4209   -5.6828   -1.2652 C.ar    1  NONAME1    -0.0503
      4 C4          5.5159   -7.0673   -1.0888 C.ar    1  NONAME1    -0.0160
      5 C5          6.1847   -7.5645    0.0230 C.ar    1  NONAME1     0.1582
      6 C6          6.7523   -6.6954    0.9511 C.ar    1  NONAME1     0.1588
      7 C7          5.9762   -3.3473   -0.5637 C.ar    1  NONAME1     0.0032
      8 C8          7.0118   -2.9239   -1.3095 C.ar    1  NONAME1     0.0314
      9 C9          7.2872   -1.5152   -1.6034 C.ar    1  NONAME1     0.3378
     10 O1          6.4630   -0.5868   -1.0020 O.2     1  NONAME1    -0.4219
     11 C10         5.3647   -0.9862   -0.2129 C.ar    1  NONAME1     0.1466
     12 C11         5.0543   -2.3379   -0.0033 C.ar    1  NONAME1     0.0672
     13 C12         4.6134    0.0654    0.3219 C.ar    1  NONAME1     0.0233
     14 C13         3.5144   -0.2282    1.1133 C.ar    1  NONAME1     0.1271
     15 C14         3.1920   -1.5573    1.3654 C.ar    1  NONAME1     0.0227
     16 C15         3.9002   -2.6049    0.7508 C.ar    1  NONAME1     0.1387
     17 O2          8.2156   -1.1931   -2.3345 O.2     1  NONAME1    -0.2452
     18 O3          7.4327   -7.1964    2.0247 O.3     1  NONAME1    -0.5033
     19 O4          6.3192   -8.9077    0.2442 O.3     1  NONAME1    -0.5033
     20 O5          3.4424   -3.8830    0.9665 O.3     1  NONAME1    -0.4600
     21 O6          2.7180    0.7130    1.7031 O.3     1  NONAME1    -0.4949
     22 C16         2.3675    1.7883    0.8348 C.3     1  NONAME1     0.0788
     23 O7         -2.1093   -2.4823   -0.9679 O.3     1  NONAME1    -0.3924
     24 C17        -0.8760   -2.2720   -0.2855 C.3     1  NONAME1     0.0731
     25 C18         0.0663   -3.4712   -0.4646 C.3     1  NONAME1     0.1140
     26 O8          1.2398   -3.2122    0.3004 O.3     1  NONAME1    -0.3313
     27 C19         2.2740   -4.2004    0.1611 C.3     1  NONAME1     0.2308
     28 C20         1.7339   -5.5752    0.6204 C.3     1  NONAME1     0.1454
     29 O9          2.6539   -6.6425    0.3516 O.3     1  NONAME1    -0.3829
     30 C21         0.4266   -5.9090   -0.1006 C.3     1  NONAME1     0.1152
     31 O10        -0.1277   -7.1150    0.4544 O.3     1  NONAME1    -0.3864
     32 C22        -0.5920   -4.7763   -0.0004 C.3     1  NONAME1     0.1120
     33 O11        -1.7245   -5.1405   -0.7986 O.3     1  NONAME1    -0.3865
     34 H1          7.1127   -4.6633    1.5250 H       1  NONAME1     0.0661
     35 H2          4.9062   -5.2933   -2.1399 H       1  NONAME1     0.0625
     36 H3          5.0622   -7.7285   -1.8190 H       1  NONAME1     0.0655
     37 H4          7.7436   -3.6090   -1.7277 H       1  NONAME1     0.0695
     38 H5          4.9208    1.0885    0.1342 H       1  NONAME1     0.0691
     39 H6          2.3473   -1.7831    2.0119 H       1  NONAME1     0.0691
     40 H7          7.3680   -8.1666    1.9208 H       1  NONAME1     0.2923
     41 H8          5.8077   -9.3732   -0.4394 H       1  NONAME1     0.2923
     42 H9          3.1982    2.4917    0.7246 H       1  NONAME1     0.0660
     43 H10         1.5308    2.3259    1.2913 H       1  NONAME1     0.0660
     44 H11         2.0343    1.4218   -0.1434 H       1  NONAME1     0.0660
     45 H12        -2.6155   -1.6518   -0.8859 H       1  NONAME1     0.2095
     46 H13        -1.0862   -2.0995    0.7762 H       1  NONAME1     0.0584
     47 H14        -0.4033   -1.3636   -0.6758 H       1  NONAME1     0.0584
     48 H15         0.3208   -3.5437   -1.5305 H       1  NONAME1     0.0647
     49 H16         2.5965   -4.2508   -0.8875 H       1  NONAME1     0.1084
     50 H17         1.5752   -5.5653    1.7060 H       1  NONAME1     0.0683
     51 H18         2.1872   -7.4530    0.6369 H       1  NONAME1     0.2102
     52 H19         0.6300   -6.1423   -1.1539 H       1  NONAME1     0.0648
     53 H20        -1.0301   -7.1714    0.0770 H       1  NONAME1     0.2100
     54 H21        -0.9387   -4.6898    1.0368 H       1  NONAME1     0.0647
     55 H22        -2.2280   -4.3110   -0.9613 H       1  NONAME1     0.2100
@<TRIPOS>BOND
     1     1     2   ar
     2     2     3   ar
     3     3     4   ar
     4     4     5   ar
     5     5     6   ar
     6     1     6   ar
     7     7     8   ar
     8     8     9   ar
     9     9    10   ar
    10    10    11   ar
    11    11    12   ar
    12     7    12   ar
    13    13    14   ar
    14    14    15   ar
    15    15    16   ar
    16    13    11   ar
    17    16    12   ar
    18     9    17    2
    19     7     2    1
    20     6    18    1
    21     5    19    1
    22    16    20    1
    23    14    21    1
    24    22    21    1
    25    23    24    1
    26    25    24    1
    27    25    26    1
    28    27    26    1
    29    28    27    1
    30    28    29    1
    31    28    30    1
    32    30    31    1
    33    30    32    1
    34    32    25    1
    35    32    33    1
    36    27    20    1
    37     1    34    1
    38     3    35    1
    39     4    36    1
    40     8    37    1
    41    13    38    1
    42    15    39    1
    43    18    40    1
    44    19    41    1
    45    22    42    1
    46    22    43    1
    47    22    44    1
    48    23    45    1
    49    24    46    1
    50    24    47    1
    51    25    48    1
    52    27    49    1
    53    28    50    1
    54    29    51    1
    55    30    52    1
    56    31    53    1
    57    32    54    1
    58    33    55    1
