@<TRIPOS>MOLECULE
*****
 52 55 0 0 0
SMALL
USER_CHARGES

@<TRIPOS>ATOM
      1 C1          6.8652   -5.4146    0.7439 C.ar    1  NONAME1    -0.0088
      2 C2          6.0772   -4.8754   -0.2846 C.ar    1  NONAME1    -0.0132
      3 C3          5.4081   -5.7374   -1.1666 C.ar    1  NONAME1    -0.0503
      4 C4          5.5083   -7.1252   -1.0172 C.ar    1  NONAME1    -0.0160
      5 C5          6.2954   -7.6436    0.0037 C.ar    1  NONAME1     0.1582
      6 C6          6.9727   -6.7920    0.8714 C.ar    1  NONAME1     0.1588
      7 C7          6.0688   -3.4158   -0.5055 C.ar    1  NONAME1     0.0032
      8 C8          7.1234   -2.9836   -1.2196 C.ar    1  NONAME1     0.0314
      9 C9          7.4185   -1.5714   -1.4720 C.ar    1  NONAME1     0.3378
     10 O1          6.6031   -0.6512   -0.8475 O.2     1  NONAME1    -0.4219
     11 C10         5.4819   -1.0592   -0.0960 C.ar    1  NONAME1     0.1466
     12 C11         5.1346   -2.4124    0.0485 C.ar    1  NONAME1     0.0672
     13 C12         4.7499   -0.0134    0.4731 C.ar    1  NONAME1     0.0231
     14 C13         3.6367   -0.3233    1.2304 C.ar    1  NONAME1     0.1239
     15 C14         3.2420   -1.6447    1.3822 C.ar    1  NONAME1     0.0225
     16 C15         3.9431   -2.6841    0.7442 C.ar    1  NONAME1     0.1387
     17 O2          8.3618   -1.2393   -2.1792 O.2     1  NONAME1    -0.2452
     18 O3          7.7712   -7.3115    1.8506 O.3     1  NONAME1    -0.5033
     19 O4          6.4438   -8.9905    0.1893 O.3     1  NONAME1    -0.5033
     20 O5          3.4629   -3.9621    0.8999 O.3     1  NONAME1    -0.4600
     21 O6          2.8894    0.6430    1.8333 O.3     1  NONAME1    -0.5065
     22 O7         -2.0921   -2.4101   -0.9326 O.3     1  NONAME1    -0.3924
     23 C16        -0.8337   -2.2246   -0.2891 C.3     1  NONAME1     0.0731
     24 C17         0.0694   -3.4528   -0.4751 C.3     1  NONAME1     0.1140
     25 O8          1.2678   -3.2209    0.2602 O.3     1  NONAME1    -0.3313
     26 C18         2.2719   -4.2363    0.1095 C.3     1  NONAME1     0.2308
     27 C19         1.7029   -5.5993    0.5735 C.3     1  NONAME1     0.1454
     28 O9          2.5842   -6.6919    0.2725 O.3     1  NONAME1    -0.3829
     29 C20         0.3662   -5.8952   -0.1082 C.3     1  NONAME1     0.1152
     30 O10        -0.2059   -7.0840    0.4662 O.3     1  NONAME1    -0.3864
     31 C21        -0.6149   -4.7333    0.0189 C.3     1  NONAME1     0.1120
     32 O11        -1.7827   -5.0699   -0.7395 O.3     1  NONAME1    -0.3865
     33 H1          7.4128   -4.7717    1.4272 H       1  NONAME1     0.0661
     34 H2          4.8030   -5.3331   -1.9738 H       1  NONAME1     0.0625
     35 H3          4.9662   -7.7722   -1.6983 H       1  NONAME1     0.0655
     36 H4          7.8614   -3.6644   -1.6340 H       1  NONAME1     0.0695
     37 H5          5.0721    1.0118    0.3252 H       1  NONAME1     0.0691
     38 H6          2.3692   -1.8688    1.9899 H       1  NONAME1     0.0691
     39 H7          7.6948   -8.2799    1.7374 H       1  NONAME1     0.2923
     40 H8          5.8539   -9.4427   -0.4380 H       1  NONAME1     0.2923
     41 H9          3.3078    1.5064    1.6787 H       1  NONAME1     0.2921
     42 H10        -2.5684   -1.5616   -0.8551 H       1  NONAME1     0.2095
     43 H11        -1.0085   -2.0297    0.7750 H       1  NONAME1     0.0584
     44 H12        -0.3474   -1.3366   -0.7081 H       1  NONAME1     0.0584
     45 H13         0.2966   -3.5445   -1.5457 H       1  NONAME1     0.0647
     46 H14         2.5808   -4.2921   -0.9426 H       1  NONAME1     0.1084
     47 H15         1.5766   -5.5926    1.6634 H       1  NONAME1     0.0683
     48 H16         2.0990   -7.4896    0.5641 H       1  NONAME1     0.2102
     49 H17         0.5311   -6.1366   -1.1664 H       1  NONAME1     0.0648
     50 H18        -1.1228   -7.1108    0.1216 H       1  NONAME1     0.2100
     51 H19        -0.9247   -4.6305    1.0662 H       1  NONAME1     0.0647
     52 H20        -2.2651   -4.2265   -0.8952 H       1  NONAME1     0.2100
@<TRIPOS>BOND
     1     1     2   ar
     2     2     3   ar
     3     3     4   ar
     4     4     5   ar
     5     5     6   ar
     6     1     6   ar
     7     7     8   ar
     8     8     9   ar
     9     9    10   ar
    10    10    11   ar
    11    11    12   ar
    12     7    12   ar
    13    13    14   ar
    14    14    15   ar
    15    15    16   ar
    16    13    11   ar
    17    16    12   ar
    18     9    17    2
    19     7     2    1
    20     6    18    1
    21     5    19    1
    22    16    20    1
    23    14    21    1
    24    22    23    1
    25    24    23    1
    26    24    25    1
    27    26    25    1
    28    27    26    1
    29    27    28    1
    30    27    29    1
    31    29    30    1
    32    29    31    1
    33    31    24    1
    34    31    32    1
    35    26    20    1
    36     1    33    1
    37     3    34    1
    38     4    35    1
    39     8    36    1
    40    13    37    1
    41    15    38    1
    42    18    39    1
    43    19    40    1
    44    21    41    1
    45    22    42    1
    46    23    43    1
    47    23    44    1
    48    24    45    1
    49    26    46    1
    50    27    47    1
    51    28    48    1
    52    29    49    1
    53    30    50    1
    54    31    51    1
    55    32    52    1
