@<TRIPOS>MOLECULE
*****
 31 33 0 0 0
SMALL
USER_CHARGES

@<TRIPOS>ATOM
      1 C1          7.9591   -5.6168   -0.0000 C.ar    1  NONAME1    -0.0088
      2 C2          6.6287   -5.1097    0.0000 C.ar    1  NONAME1    -0.0132
      3 C3          5.6619   -6.1269    0.0000 C.ar    1  NONAME1    -0.0503
      4 C4          5.9515   -7.5098   -0.0000 C.ar    1  NONAME1    -0.0160
      5 C5          7.2607   -7.9324    0.0000 C.ar    1  NONAME1     0.1582
      6 C6          8.2599   -6.9834   -0.0000 C.ar    1  NONAME1     0.1588
      7 C7          6.3175   -3.5900   -0.0000 C.ar    1  NONAME1     0.0032
      8 C8          7.4275   -2.8143   -0.0000 C.ar    1  NONAME1     0.0314
      9 C9          7.5340   -1.3572    0.0000 C.ar    1  NONAME1     0.3378
     10 O1          6.3628   -0.6673    0.0000 O.2     1  NONAME1    -0.4219
     11 C10         5.1363   -1.3528   -0.0000 C.ar    1  NONAME1     0.1466
     12 C11         5.0186   -2.7671    0.0000 C.ar    1  NONAME1     0.0669
     13 C12         4.0622   -0.4415    0.0000 C.ar    1  NONAME1     0.0231
     14 C13         2.7780   -0.9223    0.0000 C.ar    1  NONAME1     0.1239
     15 C14         2.5744   -2.2848   -0.0000 C.ar    1  NONAME1     0.0221
     16 C15         3.6674   -3.1855   -0.0000 C.ar    1  NONAME1     0.1315
     17 O2          8.6254   -0.8005   -0.0000 O.2     1  NONAME1    -0.2452
     18 O3          9.5703   -7.3727    0.0000 O.3     1  NONAME1    -0.5033
     19 O4          7.6117   -9.2492   -0.0000 O.3     1  NONAME1    -0.5033
     20 O5          3.2894   -4.4930   -0.0000 O.3     1  NONAME1    -0.5059
     21 O6          1.6934   -0.1035   -0.0000 O.3     1  NONAME1    -0.5065
     22 H1          8.8427   -4.9907    0.0000 H       1  NONAME1     0.0661
     23 H2          4.6141   -5.9218   -0.0000 H       1  NONAME1     0.0625
     24 H3          5.1277   -8.2170    0.0000 H       1  NONAME1     0.0655
     25 H4          8.4381   -3.1903    0.0000 H       1  NONAME1     0.0695
     26 H5          4.2665    0.6251   -0.0000 H       1  NONAME1     0.0691
     27 H6          1.5482   -2.6440    0.0000 H       1  NONAME1     0.0691
     28 H7          9.5365   -8.3503   -0.0000 H       1  NONAME1     0.2923
     29 H8          6.7961   -9.7793    0.0000 H       1  NONAME1     0.2923
     30 H9          2.3208   -4.5690    0.0000 H       1  NONAME1     0.2922
     31 H10         1.9950    0.8211   -0.0000 H       1  NONAME1     0.2921
@<TRIPOS>BOND
     1     1     2   ar
     2     2     3   ar
     3     3     4   ar
     4     4     5   ar
     5     5     6   ar
     6     1     6   ar
     7     7     8   ar
     8     8     9   ar
     9     9    10   ar
    10    10    11   ar
    11    11    12   ar
    12     7    12   ar
    13    13    14   ar
    14    14    15   ar
    15    15    16   ar
    16    13    11   ar
    17    16    12   ar
    18     9    17    2
    19     7     2    1
    20     6    18    1
    21     5    19    1
    22    16    20    1
    23    14    21    1
    24     1    22    1
    25     3    23    1
    26     4    24    1
    27     8    25    1
    28    13    26    1
    29    15    27    1
    30    18    28    1
    31    19    29    1
    32    20    30    1
    33    21    31    1
