@<TRIPOS>MOLECULE
*****
 55 58 0 0 0
SMALL
USER_CHARGES

@<TRIPOS>ATOM
      1 C1          7.3819   -5.8520    0.6853 C.ar    1  NONAME1    -0.0088
      2 C2          6.7424   -5.2657   -0.4200 C.ar    1  NONAME1    -0.0132
      3 C3          6.4575   -6.0457   -1.5541 C.ar    1  NONAME1    -0.0503
      4 C4          6.7865   -7.4053   -1.5793 C.ar    1  NONAME1    -0.0160
      5 C5          7.4156   -7.9689   -0.4786 C.ar    1  NONAME1     0.1582
      6 C6          7.7193   -7.1995    0.6419 C.ar    1  NONAME1     0.1588
      7 C7          6.4440   -3.8186   -0.4070 C.ar    1  NONAME1     0.0032
      8 C8          7.4899   -3.0431   -0.7419 C.ar    1  NONAME1     0.0314
      9 C9          7.4563   -1.5768   -0.7453 C.ar    1  NONAME1     0.3378
     10 O1          6.2702   -0.9829   -0.3659 O.2     1  NONAME1    -0.4219
     11 C10         5.1450   -1.7559   -0.0147 C.ar    1  NONAME1     0.1466
     12 C11         5.1755   -3.1566   -0.0354 C.ar    1  NONAME1     0.0679
     13 C12         4.0126   -1.0205    0.3534 C.ar    1  NONAME1     0.0231
     14 C13         2.8656   -1.7021    0.7251 C.ar    1  NONAME1     0.1239
     15 C14         2.8402   -3.0887    0.7191 C.ar    1  NONAME1     0.0232
     16 C15         3.9790   -3.8049    0.3142 C.ar    1  NONAME1     0.1497
     17 O2          8.4489   -0.9269   -1.0505 O.2     1  NONAME1    -0.2452
     18 O3          8.3583   -7.8228    1.6782 O.3     1  NONAME1    -0.5033
     19 O4          7.7355   -9.2990   -0.4842 O.3     1  NONAME1    -0.5033
     20 O5          3.8761   -5.2008    0.3249 O.3     1  NONAME1    -0.3940
     21 O6          1.7340   -1.0453    1.1028 O.3     1  NONAME1    -0.5065
     22 O7          2.9224   -7.0260   -0.6720 O.3     1  NONAME1    -0.4308
     23 C16         3.1615   -5.6877   -0.7648 C.2     1  NONAME1     0.5157
     24 O8          2.7682   -5.0291   -1.7194 O.2     1  NONAME1    -0.2025
     25 C17         3.5625   -7.7853    0.3672 C.3     1  NONAME1     0.1246
     26 C18         3.5152   -9.2648   -0.0178 C.3     1  NONAME1     0.1241
     27 O9          4.5420   -9.9668    0.6980 O.3     1  NONAME1    -0.3396
     28 C19         4.7813  -11.2664    0.1658 C.3     1  NONAME1     0.1854
     29 O10         5.6295  -11.1689   -0.9680 O.3     1  NONAME1    -0.3649
     30 C20         3.4896  -12.0039   -0.2594 C.3     1  NONAME1     0.1339
     31 O11         3.5824  -13.4188   -0.0245 O.3     1  NONAME1    -0.3841
     32 C21         2.3102  -11.4346    0.5181 C.3     1  NONAME1     0.1141
     33 O12         1.0970  -12.1230    0.1793 O.3     1  NONAME1    -0.3864
     34 C22         2.1420   -9.9357    0.2186 C.3     1  NONAME1     0.1129
     35 O13         1.4215   -9.3562    1.3154 O.3     1  NONAME1    -0.3864
     36 H1          7.6176   -5.2492    1.5574 H       1  NONAME1     0.0661
     37 H2          5.9754   -5.5994   -2.4227 H       1  NONAME1     0.0625
     38 H3          6.5569   -8.0121   -2.4506 H       1  NONAME1     0.0655
     39 H4          8.4539   -3.4575   -1.0224 H       1  NONAME1     0.0695
     40 H5          4.0517    0.0641    0.3489 H       1  NONAME1     0.0691
     41 H6          1.9313   -3.6103    1.0071 H       1  NONAME1     0.0691
     42 H7          8.5021   -7.1715    2.3871 H       1  NONAME1     0.2923
     43 H8          8.2515   -9.4164    0.3419 H       1  NONAME1     0.2923
     44 H9          1.8657   -0.0895    0.9849 H       1  NONAME1     0.2921
     45 H10         3.0725   -7.5873    1.3260 H       1  NONAME1     0.0726
     46 H11         4.6073   -7.4808    0.4692 H       1  NONAME1     0.0726
     47 H12         3.7502   -9.3395   -1.0891 H       1  NONAME1     0.0658
     48 H13         5.3186  -11.8437    0.9256 H       1  NONAME1     0.0935
     49 H14         6.3743  -10.5982   -0.6870 H       1  NONAME1     0.2126
     50 H15         3.3082  -11.8952   -1.3363 H       1  NONAME1     0.0671
     51 H16         4.3455  -13.7272   -0.5501 H       1  NONAME1     0.2101
     52 H17         2.4513  -11.6028    1.5935 H       1  NONAME1     0.0648
     53 H18         1.3360  -13.0725    0.1876 H       1  NONAME1     0.2100
     54 H19         1.5134   -9.7760   -0.6659 H       1  NONAME1     0.0647
     55 H20         0.5981   -9.8778    1.3912 H       1  NONAME1     0.2100
@<TRIPOS>BOND
     1     1     2   ar
     2     2     3   ar
     3     3     4   ar
     4     4     5   ar
     5     5     6   ar
     6     1     6   ar
     7     7     8   ar
     8     8     9   ar
     9     9    10   ar
    10    10    11   ar
    11    11    12   ar
    12     7    12   ar
    13    13    14   ar
    14    14    15   ar
    15    15    16   ar
    16    13    11   ar
    17    16    12   ar
    18     9    17    2
    19     7     2    1
    20     6    18    1
    21     5    19    1
    22    16    20    1
    23    14    21    1
    24    22    23    1
    25    23    24    2
    26    23    20    1
    27    26    25    1
    28    26    27    1
    29    28    27    1
    30    28    29    1
    31    30    28    1
    32    30    31    1
    33    30    32    1
    34    32    33    1
    35    32    34    1
    36    34    26    1
    37    34    35    1
    38    22    25    1
    39     1    36    1
    40     3    37    1
    41     4    38    1
    42     8    39    1
    43    13    40    1
    44    15    41    1
    45    18    42    1
    46    19    43    1
    47    21    44    1
    48    25    45    1
    49    25    46    1
    50    26    47    1
    51    28    48    1
    52    29    49    1
    53    30    50    1
    54    31    51    1
    55    32    52    1
    56    33    53    1
    57    34    54    1
    58    35    55    1
