@<TRIPOS>MOLECULE
*****
 54 57 0 0 0
SMALL
USER_CHARGES

@<TRIPOS>ATOM
      1 C1          5.3633   -5.7508    1.5229 C.ar    1  NONAME1    -0.0506
      2 C2          5.8101   -5.0186    0.4136 C.ar    1  NONAME1    -0.0166
      3 C3          6.2996   -5.6993   -0.7103 C.ar    1  NONAME1    -0.0506
      4 C4          6.3350   -7.0942   -0.7245 C.ar    1  NONAME1    -0.0196
      5 C5          5.8821   -7.8059    0.3806 C.ar    1  NONAME1     0.1169
      6 C6          5.3960   -7.1474    1.5058 C.ar    1  NONAME1    -0.0196
      7 C7          5.7967   -3.5418    0.4378 C.ar    1  NONAME1     0.0031
      8 C8          6.9629   -2.9892    0.8122 C.ar    1  NONAME1     0.0314
      9 C9          7.1951   -1.5439    0.8818 C.ar    1  NONAME1     0.3378
     10 O1          6.1467   -0.7295    0.5057 O.2     1  NONAME1    -0.4219
     11 C10         4.9013   -1.2663    0.1192 C.ar    1  NONAME1     0.1466
     12 C11         4.6686   -2.6467    0.0843 C.ar    1  NONAME1     0.0672
     13 C12         3.9286   -0.3205   -0.2141 C.ar    1  NONAME1     0.0233
     14 C13         2.6683   -0.7537   -0.5951 C.ar    1  NONAME1     0.1271
     15 C14         2.4002   -2.1261   -0.6294 C.ar    1  NONAME1     0.0227
     16 C15         3.3770   -3.0775   -0.2897 C.ar    1  NONAME1     0.1387
     17 O2          8.2760   -1.0971    1.2462 O.2     1  NONAME1    -0.2452
     18 H1          5.0424   -7.6977    2.3721 H       1  NONAME1     0.0654
     19 O3          5.9298   -9.1663    0.3186 O.3     1  NONAME1    -0.5068
     20 O4          1.6161    0.0434   -0.9515 O.3     1  NONAME1    -0.4949
     21 H2          4.9820   -5.2350    2.4016 H       1  NONAME1     0.0625
     22 H3          6.6572   -5.1485   -1.5776 H       1  NONAME1     0.0625
     23 H4          6.7158   -7.6245   -1.5934 H       1  NONAME1     0.0654
     24 H5          7.8271   -3.5873    1.0852 H       1  NONAME1     0.0695
     25 H6          4.1888    0.7310   -0.1637 H       1  NONAME1     0.0691
     26 H7          1.3962   -2.4206   -0.9202 H       1  NONAME1     0.0691
     27 H8          5.6077   -9.5317    1.1591 H       1  NONAME1     0.2921
     28 C16         1.8300    1.4496   -0.9158 C.3     1  NONAME1     0.0788
     29 O5         -2.7153   -4.2888    0.6713 O.3     1  NONAME1    -0.3924
     30 C17        -1.3863   -4.3776    1.1689 C.3     1  NONAME1     0.0731
     31 C18        -0.4412   -4.9953    0.1280 C.3     1  NONAME1     0.1140
     32 O6          0.8907   -4.5337    0.4164 O.3     1  NONAME1    -0.3313
     33 C19         1.8312   -4.9231   -0.5885 C.3     1  NONAME1     0.2308
     34 O7          3.1452   -4.4281   -0.2947 O.3     1  NONAME1    -0.4600
     35 C20         1.9413   -6.4598   -0.6148 C.3     1  NONAME1     0.1454
     36 O8          2.8175   -6.9218   -1.6542 O.3     1  NONAME1    -0.3829
     37 C21         0.5633   -7.0737   -0.8476 C.3     1  NONAME1     0.1152
     38 O9          0.6356   -8.5050   -0.7233 O.3     1  NONAME1    -0.3864
     39 C22        -0.4620   -6.5353    0.1545 C.3     1  NONAME1     0.1120
     40 O10        -1.7415   -7.0761   -0.1690 O.3     1  NONAME1    -0.3865
     41 H9          2.6098    1.7478   -1.6243 H       1  NONAME1     0.0660
     42 H10         2.0668    1.7868    0.0988 H       1  NONAME1     0.0660
     43 H11         0.8989    1.9370   -1.2203 H       1  NONAME1     0.0660
     44 H12        -3.2847   -4.0301    1.4153 H       1  NONAME1     0.2095
     45 H13        -1.3873   -4.9621    2.0955 H       1  NONAME1     0.0584
     46 H14        -1.0596   -3.3629    1.4224 H       1  NONAME1     0.0584
     47 H15        -0.7433   -4.6341   -0.8644 H       1  NONAME1     0.0647
     48 H16         1.5284   -4.5615   -1.5807 H       1  NONAME1     0.1084
     49 H17         2.3546   -6.8319    0.3310 H       1  NONAME1     0.0683
     50 H18         3.6941   -6.5378   -1.4523 H       1  NONAME1     0.2102
     51 H19         0.2252   -6.8847   -1.8744 H       1  NONAME1     0.0648
     52 H20         1.3970   -8.7677   -1.2804 H       1  NONAME1     0.2100
     53 H21        -0.2036   -6.8977    1.1577 H       1  NONAME1     0.0647
     54 H22        -1.5940   -8.0330   -0.3071 H       1  NONAME1     0.2100
@<TRIPOS>BOND
     1     1     2   ar
     2     2     3   ar
     3     3     4   ar
     4     4     5   ar
     5     5     6   ar
     6     1     6   ar
     7     7     8   ar
     8     8     9   ar
     9     9    10   ar
    10    10    11   ar
    11    11    12   ar
    12     7    12   ar
    13    13    14   ar
    14    14    15   ar
    15    15    16   ar
    16    13    11   ar
    17    16    12   ar
    18     9    17    2
    19     7     2    1
    20     6    18    1
    21     5    19    1
    22    14    20    1
    23     1    21    1
    24     3    22    1
    25     4    23    1
    26     8    24    1
    27    13    25    1
    28    15    26    1
    29    19    27    1
    30    28    20    1
    31    29    30    1
    32    31    30    1
    33    31    32    1
    34    33    32    1
    35    33    34    1
    36    35    33    1
    37    35    36    1
    38    35    37    1
    39    37    38    1
    40    37    39    1
    41    39    31    1
    42    39    40    1
    43    34    16    1
    44    28    41    1
    45    28    42    1
    46    28    43    1
    47    29    44    1
    48    30    45    1
    49    30    46    1
    50    31    47    1
    51    33    48    1
    52    35    49    1
    53    36    50    1
    54    37    51    1
    55    38    52    1
    56    39    53    1
    57    40    54    1
