@<TRIPOS>MOLECULE
*****
 59 62 0 0 0
SMALL
USER_CHARGES

@<TRIPOS>ATOM
      1 C1         -7.0333    4.1208    0.3762 C.ar    1  NONAME1     0.0233
      2 C2         -8.2719    3.6533   -0.0081 C.ar    1  NONAME1     0.1271
      3 C3         -8.3259    2.3279   -0.4236 C.ar    1  NONAME1     0.0227
      4 C4         -7.2284    1.4112   -0.3082 C.ar    1  NONAME1     0.1387
      5 C5         -5.9226    1.8709    0.0712 C.ar    1  NONAME1     0.0672
      6 C6         -5.9053    3.2589    0.3742 C.ar    1  NONAME1     0.1466
      7 O1         -4.7162    3.9672    0.6604 O.2     1  NONAME1    -0.4219
      8 C7         -4.5478    1.1377    0.1863 C.ar    1  NONAME1     0.0031
      9 C8         -3.4766    1.9300    0.3834 C.ar    1  NONAME1     0.0314
     10 C9         -3.4869    3.3830    0.5225 C.ar    1  NONAME1     0.3378
     11 C10        -4.1860   -0.3542    0.2116 C.ar    1  NONAME1    -0.0166
     12 C11        -5.2432   -1.1890    0.5501 C.ar    1  NONAME1    -0.0537
     13 C12        -5.1857   -2.5572    0.3895 C.ar    1  NONAME1    -0.0580
     14 C13        -3.9993   -3.1601    0.0000 C.ar    1  NONAME1    -0.0475
     15 C14        -2.6657   -2.3901    0.0000 C.ar    1  NONAME1    -0.0470
     16 C15        -2.8711   -0.9811    0.0090 C.ar    1  NONAME1    -0.0508
     17 C16        -1.3320   -3.1601    0.0000 C.3     1  NONAME1    -0.0394
     18 C17        -3.9993   -4.7001    0.0000 C.3     1  NONAME1    -0.0395
     19 O2         -2.4410    4.0189    0.5839 O.2     1  NONAME1    -0.2452
     20 O3         -9.3340    4.5400    0.0000 O.3     1  NONAME1    -0.4949
     21 C18       -10.6677    3.7700    0.0000 C.3     1  NONAME1     0.0788
     22 O4        -13.2702   -0.2998    1.2883 O.3     1  NONAME1    -0.3924
     23 C19       -12.1231    0.3665    0.7682 C.3     1  NONAME1     0.0731
     24 C20       -10.9201   -0.5816    0.6420 C.3     1  NONAME1     0.1140
     25 O5         -9.8496    0.1350    0.0136 O.3     1  NONAME1    -0.3313
     26 C21        -8.6192   -0.6068   -0.1233 C.3     1  NONAME1     0.2308
     27 O6         -7.4959    0.1252   -0.7460 O.3     1  NONAME1    -0.4600
     28 C22        -8.9104   -1.8690   -0.9822 C.3     1  NONAME1     0.1454
     29 O7         -7.7930   -2.7534   -1.0885 O.3     1  NONAME1    -0.3829
     30 C23       -10.0611   -2.6760   -0.3761 C.3     1  NONAME1     0.1152
     31 O8        -10.3712   -3.7875   -1.2341 O.3     1  NONAME1    -0.3864
     32 C24       -11.3024   -1.8201   -0.1763 C.3     1  NONAME1     0.1120
     33 O9        -12.2899   -2.6325    0.4696 O.3     1  NONAME1    -0.3865
     34 H1         -6.9117    5.1669    0.6474 H       1  NONAME1     0.0691
     35 H2         -9.2325    1.9880   -0.9116 H       1  NONAME1     0.0691
     36 H3         -2.4698    1.5512    0.5028 H       1  NONAME1     0.0695
     37 H4         -6.1552   -0.7760    0.9515 H       1  NONAME1     0.0624
     38 H5         -6.0644   -3.1563    0.6118 H       1  NONAME1     0.0620
     39 H6         -1.9933   -0.3580   -0.1421 H       1  NONAME1     0.0626
     40 H7         -1.1026   -2.9118    1.0557 H       1  NONAME1     0.0278
     41 H8          0.0017   -3.9301    0.0000 H       1  NONAME1     0.0278
     42 H9         -0.8181   -2.4450   -0.6727 H       1  NONAME1     0.0278
     43 H10        -4.9613   -4.8017   -0.5478 H       1  NONAME1     0.0278
     44 H11        -3.9993   -6.2401    0.0000 H       1  NONAME1     0.0278
     45 H12        -3.2154   -4.7936   -0.7798 H       1  NONAME1     0.0278
     46 H13       -11.1401    4.4624   -0.7191 H       1  NONAME1     0.0660
     47 H14       -12.0014    3.0000    0.0000 H       1  NONAME1     0.0660
     48 H15       -10.9335    4.0989    1.0210 H       1  NONAME1     0.0660
     49 H16       -13.9683    0.3763    1.3842 H       1  NONAME1     0.2095
     50 H17       -11.8717    1.2004    1.4314 H       1  NONAME1     0.0584
     51 H18       -12.3825    0.7803   -0.2125 H       1  NONAME1     0.0584
     52 H19       -10.6221   -0.8825    1.6550 H       1  NONAME1     0.0647
     53 H20        -8.2877   -0.9032    0.8787 H       1  NONAME1     0.1084
     54 H21        -9.1631   -1.5640   -2.0048 H       1  NONAME1     0.0683
     55 H22        -8.1415   -3.5560   -1.5273 H       1  NONAME1     0.2102
     56 H23        -9.7486   -3.1224    0.5773 H       1  NONAME1     0.0648
     57 H24       -11.2092   -4.1505   -0.8775 H       1  NONAME1     0.2100
     58 H25       -11.7081   -1.5321   -1.1542 H       1  NONAME1     0.0647
     59 H26       -12.9714   -2.0159    0.8216 H       1  NONAME1     0.2100
@<TRIPOS>BOND
     1     1     2   ar
     2     2     3   ar
     3     3     4   ar
     4     4     5   ar
     5     5     6   ar
     6     1     6   ar
     7     8     9   ar
     8     9    10   ar
     9     7    10   ar
    10     5     8   ar
    11     7     6   ar
    12     8    11    1
    13    12    13   ar
    14    13    14   ar
    15    14    15   ar
    16    15    16   ar
    17    11    12   ar
    18    11    16   ar
    19    15    17    1
    20    14    18    1
    21    10    19    2
    22     2    20    1
    23    20    21    1
    24    22    23    1
    25    24    23    1
    26    24    25    1
    27    26    25    1
    28    26    27    1
    29    28    26    1
    30    28    29    1
    31    28    30    1
    32    30    31    1
    33    30    32    1
    34    32    24    1
    35    32    33    1
    36     4    27    1
    37     1    34    1
    38     3    35    1
    39     9    36    1
    40    12    37    1
    41    13    38    1
    42    16    39    1
    43    17    40    1
    44    17    41    1
    45    17    42    1
    46    18    43    1
    47    18    44    1
    48    18    45    1
    49    21    46    1
    50    21    47    1
    51    21    48    1
    52    22    49    1
    53    23    50    1
    54    23    51    1
    55    24    52    1
    56    26    53    1
    57    28    54    1
    58    29    55    1
    59    30    56    1
    60    31    57    1
    61    32    58    1
    62    33    59    1
