@<TRIPOS>MOLECULE
*****
 58 61 0 0 0
SMALL
USER_CHARGES

@<TRIPOS>ATOM
      1 C1          6.2602   -5.7386    0.6434 C.ar    1  NONAME1    -0.0088
      2 C2          5.7271   -5.0595   -0.4569 C.ar    1  NONAME1    -0.0132
      3 C3          5.1597   -5.7926   -1.5101 C.ar    1  NONAME1    -0.0503
      4 C4          5.0897   -7.1902   -1.4508 C.ar    1  NONAME1    -0.0157
      5 C5          5.5887   -7.8639   -0.3373 C.ar    1  NONAME1     0.1613
      6 C6          6.1906   -7.1257    0.6871 C.ar    1  NONAME1     0.1590
      7 C7          5.7600   -3.5837   -0.5054 C.ar    1  NONAME1     0.0032
      8 C8          6.9342   -3.0675   -0.9051 C.ar    1  NONAME1     0.0314
      9 C9          7.1967   -1.6296   -1.0145 C.ar    1  NONAME1     0.3378
     10 O1          6.1629   -0.7827   -0.6697 O.2     1  NONAME1    -0.4219
     11 C10         4.9123   -1.2812   -0.2504 C.ar    1  NONAME1     0.1466
     12 C11         4.6565   -2.6544   -0.1576 C.ar    1  NONAME1     0.0672
     13 C12         3.9605   -0.3065    0.0593 C.ar    1  NONAME1     0.0233
     14 C13         2.6990   -0.7022    0.4769 C.ar    1  NONAME1     0.1271
     15 C14         2.4103   -2.0671    0.5773 C.ar    1  NONAME1     0.0227
     16 C15         3.3669   -3.0472    0.2651 C.ar    1  NONAME1     0.1387
     17 O2          8.2861   -1.2156   -1.3923 O.2     1  NONAME1    -0.2452
     18 O3          6.7008   -7.7611    1.7858 O.3     1  NONAME1    -0.5033
     19 O4          5.5562   -9.2195   -0.1393 O.3     1  NONAME1    -0.4915
     20 O5          1.6651    0.1265    0.8141 O.3     1  NONAME1    -0.4949
     21 O6         -2.7511   -4.2693   -0.5596 O.3     1  NONAME1    -0.3924
     22 C16        -1.4279   -4.3829   -1.0676 C.3     1  NONAME1     0.0731
     23 C17        -0.4737   -4.9588   -0.0113 C.3     1  NONAME1     0.1140
     24 O7          0.8570   -4.5139   -0.3303 O.3     1  NONAME1    -0.3313
     25 C18         1.8044   -4.8586    0.6843 C.3     1  NONAME1     0.2308
     26 O8          3.1192   -4.3919    0.3508 O.3     1  NONAME1    -0.4600
     27 C19         1.9076   -6.3930    0.7881 C.3     1  NONAME1     0.1454
     28 O9          2.7811   -6.8116    1.8482 O.3     1  NONAME1    -0.3829
     29 C20         0.5292   -6.9934    1.0492 C.3     1  NONAME1     0.1152
     30 O10         0.6033   -8.4293    0.9880 O.3     1  NONAME1    -0.3864
     31 C21        -0.4972   -6.4986    0.0266 C.3     1  NONAME1     0.1120
     32 O11        -1.7763   -7.0241    0.3749 O.3     1  NONAME1    -0.3865
     33 C22         1.9021    1.5262    0.7197 C.3     1  NONAME1     0.0788
     34 C23         4.5841   -9.9323   -0.8984 C.3     1  NONAME1     0.0790
     35 H1          6.7157   -5.1988    1.4693 H       1  NONAME1     0.0661
     36 H2          4.7503   -5.2752   -2.3759 H       1  NONAME1     0.0625
     37 H3          4.6415   -7.7185   -2.2857 H       1  NONAME1     0.0655
     38 H4          7.7810   -3.6917   -1.1742 H       1  NONAME1     0.0695
     39 H5          4.2374    0.7376   -0.0369 H       1  NONAME1     0.0691
     40 H6          1.4081   -2.3332    0.9000 H       1  NONAME1     0.0691
     41 H7          6.5738   -8.7148    1.6127 H       1  NONAME1     0.2923
     42 H8         -3.3275   -4.0350   -1.3063 H       1  NONAME1     0.2095
     43 H9         -1.4406   -5.0063   -1.9684 H       1  NONAME1     0.0584
     44 H10        -1.1013   -3.3808   -1.3672 H       1  NONAME1     0.0584
     45 H11        -0.7658   -4.5559    0.9681 H       1  NONAME1     0.0647
     46 H12         1.5147   -4.4438    1.6593 H       1  NONAME1     0.1084
     47 H13         2.3182   -6.8121   -0.1384 H       1  NONAME1     0.0683
     48 H14         3.6464   -6.3904    1.6715 H       1  NONAME1     0.2102
     49 H15         0.1926   -6.7595    2.0672 H       1  NONAME1     0.0648
     50 H16         1.3520   -8.6642    1.5740 H       1  NONAME1     0.2100
     51 H17        -0.2406   -6.9034   -0.9608 H       1  NONAME1     0.0647
     52 H18        -1.6302   -7.9741    0.5549 H       1  NONAME1     0.2100
     53 H19         2.6954    1.8385    1.4068 H       1  NONAME1     0.0660
     54 H20         2.1320    1.8189   -0.3101 H       1  NONAME1     0.0660
     55 H21         0.9830    2.0413    1.0153 H       1  NONAME1     0.0660
     56 H22         4.8764   -9.9894   -1.9515 H       1  NONAME1     0.0660
     57 H23         4.5400  -10.9535   -0.5078 H       1  NONAME1     0.0660
     58 H24         3.5877   -9.4901   -0.7876 H       1  NONAME1     0.0660
@<TRIPOS>BOND
     1     1     2   ar
     2     2     3   ar
     3     3     4   ar
     4     4     5   ar
     5     5     6   ar
     6     1     6   ar
     7     7     8   ar
     8     8     9   ar
     9     9    10   ar
    10    10    11   ar
    11    11    12   ar
    12     7    12   ar
    13    13    14   ar
    14    14    15   ar
    15    15    16   ar
    16    13    11   ar
    17    16    12   ar
    18     9    17    2
    19     7     2    1
    20     6    18    1
    21     5    19    1
    22    14    20    1
    23    21    22    1
    24    23    22    1
    25    23    24    1
    26    25    24    1
    27    25    26    1
    28    27    25    1
    29    27    28    1
    30    27    29    1
    31    29    30    1
    32    29    31    1
    33    31    23    1
    34    31    32    1
    35    26    16    1
    36    33    20    1
    37    34    19    1
    38     1    35    1
    39     3    36    1
    40     4    37    1
    41     8    38    1
    42    13    39    1
    43    15    40    1
    44    18    41    1
    45    21    42    1
    46    22    43    1
    47    22    44    1
    48    23    45    1
    49    25    46    1
    50    27    47    1
    51    28    48    1
    52    29    49    1
    53    30    50    1
    54    31    51    1
    55    32    52    1
    56    33    53    1
    57    33    54    1
    58    33    55    1
    59    34    56    1
    60    34    57    1
    61    34    58    1
