@<TRIPOS>MOLECULE
*****
 54 57 0 0 0
SMALL
USER_CHARGES

@<TRIPOS>ATOM
      1 C1          5.0401   -6.5790   -0.9421 C.ar    1  NONAME1    -0.0506
      2 C2          4.5625   -5.9821    0.2335 C.ar    1  NONAME1    -0.0166
      3 C3          4.1583   -6.7921    1.3032 C.ar    1  NONAME1    -0.0506
      4 C4          4.2201   -8.1825    1.1912 C.ar    1  NONAME1    -0.0196
      5 C5          4.6972   -8.7594    0.0196 C.ar    1  NONAME1     0.1169
      6 C6          5.1094   -7.9699   -1.0494 C.ar    1  NONAME1    -0.0196
      7 C7          4.5101   -4.5118    0.3446 C.ar    1  NONAME1     0.0031
      8 C8          5.6025   -3.9503    0.8893 C.ar    1  NONAME1     0.0314
      9 C9          5.7780   -2.5033    1.0582 C.ar    1  NONAME1     0.3378
     10 O1          4.7548   -1.6944    0.6037 O.2     1  NONAME1    -0.4219
     11 C10         3.5911   -2.2425    0.0280 C.ar    1  NONAME1     0.1466
     12 C11         3.4198   -3.6248   -0.1070 C.ar    1  NONAME1     0.0679
     13 C12         2.6350   -1.3119   -0.3937 C.ar    1  NONAME1     0.0231
     14 C13         1.4662   -1.7733   -0.9789 C.ar    1  NONAME1     0.1239
     15 C14         1.2455   -3.1342   -1.1310 C.ar    1  NONAME1     0.0232
     16 C15         2.2071   -4.0486   -0.6738 C.ar    1  NONAME1     0.1497
     17 O2          6.7961   -2.0488    1.5661 O.2     1  NONAME1    -0.2452
     18 H1          5.4796   -8.4130   -1.9684 H       1  NONAME1     0.0654
     19 O3          4.7489  -10.1206   -0.0459 O.3     1  NONAME1    -0.5068
     20 O4          1.9188   -5.4040   -0.8666 O.3     1  NONAME1    -0.3940
     21 O5          0.5016   -0.9191   -1.4208 O.3     1  NONAME1    -0.5065
     22 O6          0.6484   -7.1299   -0.2864 O.3     1  NONAME1    -0.4308
     23 C16        -0.3709   -7.6945    0.5587 C.3     1  NONAME1     0.1246
     24 C17        -0.8570   -9.0006   -0.0808 C.3     1  NONAME1     0.1241
     25 O7          0.1709   -9.9958    0.0860 O.3     1  NONAME1    -0.3396
     26 C18        -0.1582  -11.2206   -0.5469 C.3     1  NONAME1     0.1854
     27 O8          0.9066  -12.1311   -0.3161 O.3     1  NONAME1    -0.3649
     28 C19        -1.4383  -11.8298    0.0459 C.3     1  NONAME1     0.1339
     29 O9         -1.8108  -13.0363   -0.6367 O.3     1  NONAME1    -0.3841
     30 C20        -2.5781  -10.8226   -0.0614 C.3     1  NONAME1     0.1141
     31 O10        -3.7481  -11.3112    0.6136 O.3     1  NONAME1    -0.3864
     32 C21        -2.1699   -9.4813    0.5544 C.3     1  NONAME1     0.1129
     33 O11        -3.2202   -8.5364    0.3394 O.3     1  NONAME1    -0.3864
     34 C22         1.0731   -5.9020    0.1113 C.2     1  NONAME1     0.5157
     35 O12         0.7256   -5.3326    1.1370 O.2     1  NONAME1    -0.2025
     36 H2          5.3579   -5.9632   -1.7807 H       1  NONAME1     0.0625
     37 H3          3.7854   -6.3477    2.2237 H       1  NONAME1     0.0625
     38 H4          3.9015   -8.8122    2.0172 H       1  NONAME1     0.0654
     39 H5          6.4456   -4.5402    1.2360 H       1  NONAME1     0.0695
     40 H6          2.8241   -0.2514   -0.2632 H       1  NONAME1     0.0691
     41 H7          0.3248   -3.4832   -1.5902 H       1  NONAME1     0.0691
     42 H8          5.2209  -10.3713   -0.8572 H       1  NONAME1     0.2921
     43 H9          0.7607   -0.0077   -1.2043 H       1  NONAME1     0.2921
     44 H10         0.0619   -7.8915    1.5466 H       1  NONAME1     0.0726
     45 H11        -1.1940   -6.9763    0.6438 H       1  NONAME1     0.0726
     46 H12        -0.9954   -8.8231   -1.1562 H       1  NONAME1     0.0658
     47 H13        -0.2435  -11.0832   -1.6314 H       1  NONAME1     0.0935
     48 H14         1.7071  -11.5957   -0.4665 H       1  NONAME1     0.2126
     49 H15        -1.2832  -12.1044    1.0968 H       1  NONAME1     0.0671
     50 H16        -1.0024  -13.5885   -0.6319 H       1  NONAME1     0.2101
     51 H17        -2.8774  -10.6867   -1.1084 H       1  NONAME1     0.0648
     52 H18        -3.8552  -12.2335    0.3028 H       1  NONAME1     0.2100
     53 H19        -2.0514   -9.5976    1.6390 H       1  NONAME1     0.0647
     54 H20        -4.0399   -8.9961    0.6164 H       1  NONAME1     0.2100
@<TRIPOS>BOND
     1     1     2   ar
     2     2     3   ar
     3     3     4   ar
     4     4     5   ar
     5     5     6   ar
     6     1     6   ar
     7     7     8   ar
     8     8     9   ar
     9     9    10   ar
    10    10    11   ar
    11    11    12   ar
    12     7    12   ar
    13    13    14   ar
    14    14    15   ar
    15    15    16   ar
    16    13    11   ar
    17    16    12   ar
    18     9    17    2
    19     7     2    1
    20     6    18    1
    21     5    19    1
    22    16    20    1
    23    14    21    1
    24    22    23    1
    25    24    23    1
    26    24    25    1
    27    26    25    1
    28    26    27    1
    29    28    26    1
    30    28    29    1
    31    28    30    1
    32    30    31    1
    33    30    32    1
    34    32    24    1
    35    32    33    1
    36    34    35    2
    37    34    22    1
    38    34    20    1
    39     1    36    1
    40     3    37    1
    41     4    38    1
    42     8    39    1
    43    13    40    1
    44    15    41    1
    45    19    42    1
    46    21    43    1
    47    23    44    1
    48    23    45    1
    49    24    46    1
    50    26    47    1
    51    27    48    1
    52    28    49    1
    53    29    50    1
    54    30    51    1
    55    31    52    1
    56    32    53    1
    57    33    54    1
