@<TRIPOS>MOLECULE
*****
 55 58 0 0 0
SMALL
USER_CHARGES

@<TRIPOS>ATOM
      1 C1          5.6638   -6.3747    0.8623 C.ar    1  NONAME1    -0.0088
      2 C2          4.9533   -5.8343   -0.2184 C.ar    1  NONAME1    -0.0132
      3 C3          4.5571   -6.6700   -1.2763 C.ar    1  NONAME1    -0.0503
      4 C4          4.8623   -8.0349   -1.2569 C.ar    1  NONAME1    -0.0160
      5 C5          5.5772   -8.5536   -0.1841 C.ar    1  NONAME1     0.1582
      6 C6          5.9724   -7.7275    0.8651 C.ar    1  NONAME1     0.1588
      7 C7          4.6968   -4.3823   -0.2811 C.ar    1  NONAME1     0.0032
      8 C8          5.7444   -3.6586   -0.7128 C.ar    1  NONAME1     0.0314
      9 C9          5.7339   -2.1980   -0.8423 C.ar    1  NONAME1     0.3378
     10 O1          4.5697   -1.5519   -0.4798 O.2     1  NONAME1    -0.4219
     11 C10         3.4474   -2.2707   -0.0207 C.ar    1  NONAME1     0.1466
     12 C11         3.4566   -3.6684    0.0814 C.ar    1  NONAME1     0.0679
     13 C12         2.3409   -1.4851    0.3207 C.ar    1  NONAME1     0.0231
     14 C13         1.2010   -2.1102    0.7967 C.ar    1  NONAME1     0.1239
     15 C14         1.1583   -3.4907    0.9195 C.ar    1  NONAME1     0.0232
     16 C15         2.2688   -4.2637    0.5347 C.ar    1  NONAME1     0.1497
     17 O2          6.7196   -1.5948   -1.2492 O.2     1  NONAME1    -0.2452
     18 O3          6.6908   -8.2430    1.9060 O.3     1  NONAME1    -0.5033
     19 O4          5.9281   -9.8737   -0.1196 O.3     1  NONAME1    -0.5033
     20 O5          2.1424   -5.6510    0.6786 O.3     1  NONAME1    -0.3940
     21 O6          0.0929   -1.4040    1.1545 O.3     1  NONAME1    -0.5065
     22 O7          0.8127   -7.3684    0.1762 O.3     1  NONAME1    -0.4308
     23 C16        -0.3167   -7.8445   -0.5794 C.3     1  NONAME1     0.1246
     24 C17        -0.9135   -9.0730    0.1222 C.3     1  NONAME1     0.1241
     25 O8         -0.0535  -10.2007   -0.1335 O.3     1  NONAME1    -0.3396
     26 C18        -0.5098  -11.3853    0.4999 C.3     1  NONAME1     0.1854
     27 O9          0.3933  -12.4358    0.1815 O.3     1  NONAME1    -0.3649
     28 C19        -1.8998  -11.7902   -0.0147 C.3     1  NONAME1     0.1339
     29 O10        -2.3836  -12.9678    0.6475 O.3     1  NONAME1    -0.3841
     30 C20        -2.8750  -10.6449    0.2272 C.3     1  NONAME1     0.1141
     31 O11        -4.1550  -10.9416   -0.3526 O.3     1  NONAME1    -0.3864
     32 C21        -2.3383   -9.3502   -0.3865 C.3     1  NONAME1     0.1129
     33 O12        -3.2196   -8.2785   -0.0418 O.3     1  NONAME1    -0.3864
     34 C22         1.2939   -6.1797   -0.2807 C.2     1  NONAME1     0.5157
     35 O13         0.9676   -5.6492   -1.3350 O.2     1  NONAME1    -0.2025
     36 H1          5.9932   -5.7495    1.6876 H       1  NONAME1     0.0661
     37 H2          4.0132   -6.2573   -2.1247 H       1  NONAME1     0.0625
     38 H3          4.5458   -8.6625   -2.0838 H       1  NONAME1     0.0655
     39 H4          6.6885   -4.1158   -0.9943 H       1  NONAME1     0.0695
     40 H5          2.3955   -0.4064    0.2158 H       1  NONAME1     0.0691
     41 H6          0.2567   -3.9659    1.2971 H       1  NONAME1     0.0691
     42 H7          6.8073   -9.1876    1.6815 H       1  NONAME1     0.2923
     43 H8          5.6231  -10.3076   -0.9351 H       1  NONAME1     0.2923
     44 H9          0.2430   -0.4619    0.9689 H       1  NONAME1     0.2921
     45 H10        -1.0596   -7.0404   -0.6362 H       1  NONAME1     0.0726
     46 H11         0.0234   -8.1115   -1.5871 H       1  NONAME1     0.0726
     47 H12        -0.9233   -8.8839    1.2042 H       1  NONAME1     0.0658
     48 H13        -0.5081  -11.2674    1.5903 H       1  NONAME1     0.0935
     49 H14         1.2470  -12.1392    0.5416 H       1  NONAME1     0.2126
     50 H15        -1.8624  -12.0289   -1.0850 H       1  NONAME1     0.0671
     51 H16        -1.6688  -13.6283    0.5429 H       1  NONAME1     0.2101
     52 H17        -3.0605  -10.5129    1.3006 H       1  NONAME1     0.0648
     53 H18        -4.3626  -11.8530   -0.0608 H       1  NONAME1     0.2100
     54 H19        -2.3432   -9.4363   -1.4804 H       1  NONAME1     0.0647
     55 H20        -4.1198   -8.6094   -0.2422 H       1  NONAME1     0.2100
@<TRIPOS>BOND
     1     1     2   ar
     2     2     3   ar
     3     3     4   ar
     4     4     5   ar
     5     5     6   ar
     6     1     6   ar
     7     7     8   ar
     8     8     9   ar
     9     9    10   ar
    10    10    11   ar
    11    11    12   ar
    12     7    12   ar
    13    13    14   ar
    14    14    15   ar
    15    15    16   ar
    16    13    11   ar
    17    16    12   ar
    18     9    17    2
    19     7     2    1
    20     6    18    1
    21     5    19    1
    22    16    20    1
    23    14    21    1
    24    22    23    1
    25    24    23    1
    26    24    25    1
    27    26    25    1
    28    26    27    1
    29    28    26    1
    30    28    29    1
    31    28    30    1
    32    30    31    1
    33    30    32    1
    34    32    24    1
    35    32    33    1
    36    34    35    2
    37    34    22    1
    38    34    20    1
    39     1    36    1
    40     3    37    1
    41     4    38    1
    42     8    39    1
    43    13    40    1
    44    15    41    1
    45    18    42    1
    46    19    43    1
    47    21    44    1
    48    23    45    1
    49    23    46    1
    50    24    47    1
    51    26    48    1
    52    27    49    1
    53    28    50    1
    54    29    51    1
    55    30    52    1
    56    31    53    1
    57    32    54    1
    58    33    55    1
