@<TRIPOS>MOLECULE
*****
 74 78 0 0 0
SMALL
USER_CHARGES

@<TRIPOS>ATOM
      1 C           6.0698   -5.1196   -0.6790 C.ar    1  NONAME1    -0.0091
      2 C           5.5897   -4.4090    0.4338 C.ar    1  NONAME1    -0.0172
      3 C           5.4222   -5.0668    1.6619 C.ar    1  NONAME1    -0.0506
      4 C           5.7141   -6.4275    1.7776 C.ar    1  NONAME1    -0.0160
      5 C           6.1935   -7.1156    0.6726 C.ar    1  NONAME1     0.1582
      6 C           6.3749   -6.4697   -0.5474 C.ar    1  NONAME1     0.1588
      7 C           5.3992   -2.9555    0.3318 C.2     1  NONAME1    -0.0202
      8 C           6.4861   -2.2035    0.5679 C.2     1  NONAME1     0.0274
      9 C           6.5205   -0.7620    0.2973 C.2     1  NONAME1     0.3372
     10 O           5.3510   -0.1729   -0.0663 O.3     1  NONAME1    -0.4263
     11 C           4.1104   -0.8574   -0.0188 C.2     1  NONAME1     0.1227
     12 C           4.0898   -2.3717   -0.1666 C.3     1  NONAME1     0.0731
     13 C           3.0043   -0.1317    0.1886 C.2     1  NONAME1     0.0187
     14 C           1.7195   -0.7577    0.3170 C.2     1  NONAME1     0.1218
     15 C           1.6115   -2.0784    0.4962 C.2     1  NONAME1    -0.0126
     16 C           2.7883   -3.0245    0.4599 C.3     1  NONAME1     0.0972
     17 O           7.5766   -0.1454    0.3715 O.2     1  NONAME1    -0.2452
     18 O           6.8556   -7.2081   -1.5919 O.3     1  NONAME1    -0.5033
     19 O           6.4895   -8.4417    0.7942 O.3     1  NONAME1    -0.5033
     20 O           0.6370    0.0800    0.4489 O.2     1  NONAME1    -0.4952
     21 O          -2.7423   -4.4227   -1.0752 O.3     1  NONAME1    -0.3741
     22 C          -1.8668   -4.3441    0.0529 C.3     1  NONAME1     0.0766
     23 C          -0.5611   -5.0743   -0.2850 C.3     1  NONAME1     0.1133
     24 O           0.4203   -4.8359    0.7375 O.3     1  NONAME1    -0.3405
     25 C           1.7445   -5.2127    0.3413 C.3     1  NONAME1     0.1886
     26 O           2.4288   -4.1588   -0.3585 O.3     1  NONAME1    -0.3402
     27 C           1.7529   -6.4654   -0.5762 C.3     1  NONAME1     0.1341
     28 O           2.9441   -7.2482   -0.4208 O.3     1  NONAME1    -0.3841
     29 C           0.5565   -7.3441   -0.2387 C.3     1  NONAME1     0.1141
     30 O           0.5783   -8.5477   -1.0210 O.3     1  NONAME1    -0.3864
     31 C          -0.7555   -6.5940   -0.4953 C.3     1  NONAME1     0.1119
     32 O          -1.7442   -7.1547    0.3804 O.3     1  NONAME1    -0.3865
     33 C          -5.0891   -5.8880   -0.1829 C.3     1  NONAME1     0.0843
     34 C          -4.9827   -4.3731    0.0005 C.3     1  NONAME1     0.1427
     35 C          -6.4133   -3.9398   -0.2711 C.3     1  NONAME1     0.1385
     36 C          -7.1867   -5.0813    0.3870 C.3     1  NONAME1     0.1853
     37 O          -6.4543   -6.2722    0.1209 O.3     1  NONAME1    -0.3459
     38 O          -8.4805   -5.1700   -0.1797 O.3     1  NONAME1    -0.3649
     39 C          -3.9620   -3.6906   -0.9193 C.3     1  NONAME1     0.0813
     40 O          -4.6763   -4.0570    1.3753 O.3     1  NONAME1    -0.3812
     41 O          -6.7008   -2.6586    0.2918 O.3     1  NONAME1    -0.3837
     42 C           0.1742    0.5220   -0.8267 C.3     1  NONAME1     0.0788
     43 H           6.2262   -4.6070   -1.6241 H       1  NONAME1     0.0661
     44 H           5.0834   -4.5239    2.5420 H       1  NONAME1     0.0625
     45 H           5.5855   -6.9436    2.7249 H       1  NONAME1     0.0655
     46 H           7.4363   -2.6253    0.8809 H       1  NONAME1     0.0692
     47 H           4.0673   -2.5741   -1.2491 H       1  NONAME1     0.0457
     48 H           3.0615    0.9466    0.3065 H       1  NONAME1     0.0688
     49 H           0.6308   -2.4787    0.7198 H       1  NONAME1     0.0634
     50 H           2.9972   -3.3516    1.4861 H       1  NONAME1     0.0653
     51 H           7.0105   -6.6174   -2.3495 H       1  NONAME1     0.2923
     52 H           6.7940   -8.7154   -0.0939 H       1  NONAME1     0.2923
     53 H          -1.6505   -3.2922    0.2733 H       1  NONAME1     0.0586
     54 H          -2.3275   -4.7758    0.9461 H       1  NONAME1     0.0586
     55 H          -0.1776   -4.6443   -1.2213 H       1  NONAME1     0.0647
     56 H           2.3066   -5.4410    1.2544 H       1  NONAME1     0.0938
     57 H           1.7228   -6.1784   -1.6347 H       1  NONAME1     0.0671
     58 H           3.6959   -6.6435   -0.5553 H       1  NONAME1     0.2101
     59 H           0.6193   -7.6740    0.8065 H       1  NONAME1     0.0648
     60 H           1.5037   -8.8641   -0.9619 H       1  NONAME1     0.2100
     61 H          -1.1231   -6.7691   -1.5135 H       1  NONAME1     0.0647
     62 H          -1.7619   -8.1110    0.1843 H       1  NONAME1     0.2100
     63 H          -4.4284   -6.4430    0.4884 H       1  NONAME1     0.0591
     64 H          -4.9003   -6.1955   -1.2167 H       1  NONAME1     0.0591
     65 H          -6.6293   -3.9005   -1.3461 H       1  NONAME1     0.0675
     66 H          -7.2889   -4.9403    1.4692 H       1  NONAME1     0.0935
     67 H          -8.8687   -5.9565    0.2417 H       1  NONAME1     0.2126
     68 H          -4.3786   -3.6102   -1.9295 H       1  NONAME1     0.0590
     69 H          -3.7357   -2.6720   -0.5816 H       1  NONAME1     0.0590
     70 H          -5.0390   -3.1594    1.5238 H       1  NONAME1     0.2105
     71 H          -7.6665   -2.5425    0.1944 H       1  NONAME1     0.2101
     72 H           0.9295    1.1333   -1.3320 H       1  NONAME1     0.0660
     73 H          -0.7130    1.1416   -0.6664 H       1  NONAME1     0.0660
     74 H          -0.1114   -0.3282   -1.4560 H       1  NONAME1     0.0660
@<TRIPOS>BOND
     1     1     2   ar
     2     2     3   ar
     3     3     4   ar
     4     4     5   ar
     5     5     6   ar
     6     1     6   ar
     7     7     8    2
     8     8     9    1
     9     9    10    1
    10    10    11    1
    11    11    12    1
    12     7    12    1
    13    13    14    1
    14    14    15    2
    15    15    16    1
    16    13    11    2
    17    16    12    1
    18     9    17    2
    19     7     2    1
    20     6    18    1
    21     5    19    1
    22    14    20    1
    23    21    22    1
    24    23    22    1
    25    23    24    1
    26    25    24    1
    27    25    26    1
    28    27    25    1
    29    27    28    1
    30    27    29    1
    31    29    30    1
    32    29    31    1
    33    31    23    1
    34    31    32    1
    35    16    26    1
    36    33    34    1
    37    34    35    1
    38    35    36    1
    39    36    37    1
    40    33    37    1
    41    36    38    1
    42    34    39    1
    43    34    40    1
    44    35    41    1
    45    39    21    1
    46    42    20    1
    47     1    43    1
    48     3    44    1
    49     4    45    1
    50     8    46    1
    51    12    47    1
    52    13    48    1
    53    15    49    1
    54    16    50    1
    55    18    51    1
    56    19    52    1
    57    22    53    1
    58    22    54    1
    59    23    55    1
    60    25    56    1
    61    27    57    1
    62    28    58    1
    63    29    59    1
    64    30    60    1
    65    31    61    1
    66    32    62    1
    67    33    63    1
    68    33    64    1
    69    35    65    1
    70    36    66    1
    71    38    67    1
    72    39    68    1
    73    39    69    1
    74    40    70    1
    75    41    71    1
    76    42    72    1
    77    42    73    1
    78    42    74    1
