@<TRIPOS>MOLECULE
*****
 74 78 0 0 0
SMALL
USER_CHARGES

@<TRIPOS>ATOM
      1 C           6.1086   -5.6262   -0.6123 C.ar    1  NONAME1    -0.0091
      2 C           5.7364   -4.7398    0.4119 C.ar    1  NONAME1    -0.0172
      3 C           5.4633   -5.2332    1.6968 C.ar    1  NONAME1    -0.0506
      4 C           5.5403   -6.6032    1.9559 C.ar    1  NONAME1    -0.0160
      5 C           5.9135   -7.4669    0.9367 C.ar    1  NONAME1     0.1582
      6 C           6.2013   -6.9858   -0.3379 C.ar    1  NONAME1     0.1588
      7 C           5.7661   -3.2936    0.1559 C.2     1  NONAME1    -0.0202
      8 C           6.9467   -2.6847    0.3511 C.2     1  NONAME1     0.0274
      9 C           7.1974   -1.3018   -0.0724 C.2     1  NONAME1     0.3372
     10 O           6.1354   -0.5975   -0.5458 O.3     1  NONAME1    -0.4263
     11 C           4.8079   -1.0833   -0.4403 C.2     1  NONAME1     0.1227
     12 C           4.5679   -2.5821   -0.4459 C.3     1  NONAME1     0.0731
     13 C           3.8236   -0.1862   -0.3088 C.2     1  NONAME1     0.0187
     14 C           2.4532   -0.5755   -0.1184 C.2     1  NONAME1     0.1218
     15 C           2.1504   -1.8596    0.1310 C.2     1  NONAME1    -0.0126
     16 C           3.1760   -2.9717    0.1950 C.3     1  NONAME1     0.0972
     17 O           8.3308   -0.8390   -0.0244 O.2     1  NONAME1    -0.2452
     18 O           6.5673   -7.8927   -1.2920 O.3     1  NONAME1    -0.5033
     19 O           5.9984   -8.8032    1.1977 O.3     1  NONAME1    -0.5033
     20 O           1.5943    0.4930   -0.1507 O.2     1  NONAME1    -0.4952
     21 O          -2.5180   -3.6681   -1.1859 O.3     1  NONAME1    -0.3460
     22 C          -1.5900   -3.6261   -0.1053 C.3     1  NONAME1     0.0796
     23 C          -0.4120   -4.5513   -0.4175 C.3     1  NONAME1     0.1134
     24 O           0.5875   -4.4154    0.6070 O.3     1  NONAME1    -0.3405
     25 C           1.8434   -5.0014    0.2431 C.3     1  NONAME1     0.1886
     26 O           2.6579   -4.1075   -0.5339 O.3     1  NONAME1    -0.3402
     27 C           1.6628   -6.3130   -0.5694 C.3     1  NONAME1     0.1341
     28 O           2.7049   -7.2634   -0.3125 O.3     1  NONAME1    -0.3841
     29 C           0.3328   -6.9555   -0.1958 C.3     1  NONAME1     0.1141
     30 O           0.1688   -8.2140   -0.8655 O.3     1  NONAME1    -0.3864
     31 C          -0.8323   -6.0313   -0.5669 C.3     1  NONAME1     0.1119
     32 O          -1.9537   -6.3839    0.2606 O.3     1  NONAME1    -0.3865
     33 C           0.2163    0.2530    0.1101 C.3     1  NONAME1     0.0788
     34 O          -6.2593    0.5518    0.6172 O.3     1  NONAME1    -0.3924
     35 C          -5.1992    0.0874   -0.2015 C.3     1  NONAME1     0.0730
     36 C          -4.5976   -1.2165    0.3274 C.3     1  NONAME1     0.1131
     37 O          -3.4814   -1.5825   -0.5239 O.3     1  NONAME1    -0.3405
     38 C          -3.7103   -2.9259   -0.9655 C.3     1  NONAME1     0.1880
     39 C          -4.6654   -3.5633    0.0413 C.3     1  NONAME1     0.1341
     40 O          -5.3740   -4.6874   -0.4738 O.3     1  NONAME1    -0.3841
     41 C          -5.5852   -2.3911    0.3236 C.3     1  NONAME1     0.1141
     42 O          -6.2558   -2.5729    1.5656 O.3     1  NONAME1    -0.3864
     43 H           6.3470   -5.2436   -1.6009 H       1  NONAME1     0.0661
     44 H           5.2075   -4.5564    2.5096 H       1  NONAME1     0.0625
     45 H           5.3288   -6.9928    2.9477 H       1  NONAME1     0.0655
     46 H           7.8184   -3.2015    0.7404 H       1  NONAME1     0.0692
     47 H           4.5392   -2.8870   -1.5037 H       1  NONAME1     0.0457
     48 H           4.0463    0.8778   -0.3124 H       1  NONAME1     0.0688
     49 H           1.1279   -2.1340    0.3427 H       1  NONAME1     0.0634
     50 H           3.3174   -3.2378    1.2501 H       1  NONAME1     0.0653
     51 H           6.8316   -7.4132   -2.0966 H       1  NONAME1     0.2923
     52 H           6.2677   -9.2102    0.3502 H       1  NONAME1     0.2923
     53 H          -1.2203   -2.6026    0.0171 H       1  NONAME1     0.0587
     54 H          -2.0512   -3.9105    0.8455 H       1  NONAME1     0.0587
     55 H           0.0319   -4.2213   -1.3673 H       1  NONAME1     0.0647
     56 H           2.3762   -5.2340    1.1723 H       1  NONAME1     0.0938
     57 H           1.6973   -6.1166   -1.6483 H       1  NONAME1     0.0671
     58 H           3.5493   -6.8099   -0.4872 H       1  NONAME1     0.2101
     59 H           0.3174   -7.1909    0.8763 H       1  NONAME1     0.0648
     60 H           1.0322   -8.6656   -0.7597 H       1  NONAME1     0.2100
     61 H          -1.1624   -6.2053   -1.5981 H       1  NONAME1     0.0647
     62 H          -2.0512   -7.3522    0.1650 H       1  NONAME1     0.2100
     63 H           0.0733   -0.1563    1.1157 H       1  NONAME1     0.0660
     64 H          -0.3071    1.2125    0.0616 H       1  NONAME1     0.0660
     65 H          -0.2159   -0.4064   -0.6488 H       1  NONAME1     0.0660
     66 H          -6.5623    1.3989    0.2483 H       1  NONAME1     0.2095
     67 H          -5.5718   -0.0472   -1.2233 H       1  NONAME1     0.0584
     68 H          -4.4242    0.8610   -0.2437 H       1  NONAME1     0.0584
     69 H          -4.2109   -1.0516    1.3405 H       1  NONAME1     0.0647
     70 H          -4.2042   -2.8679   -1.9435 H       1  NONAME1     0.0937
     71 H          -4.1705   -3.8887    0.9616 H       1  NONAME1     0.0671
     72 H          -4.6930   -5.3620   -0.6653 H       1  NONAME1     0.2101
     73 H          -6.3446   -2.2872   -0.4610 H       1  NONAME1     0.0648
     74 H          -6.7698   -3.3972    1.4774 H       1  NONAME1     0.2100
@<TRIPOS>BOND
     1     1     2   ar
     2     2     3   ar
     3     3     4   ar
     4     4     5   ar
     5     5     6   ar
     6     1     6   ar
     7     7     8    2
     8     8     9    1
     9     9    10    1
    10    10    11    1
    11    11    12    1
    12     7    12    1
    13    13    14    1
    14    14    15    2
    15    15    16    1
    16    13    11    2
    17    16    12    1
    18     9    17    2
    19     7     2    1
    20     6    18    1
    21     5    19    1
    22    14    20    1
    23    21    22    1
    24    23    22    1
    25    23    24    1
    26    25    24    1
    27    25    26    1
    28    27    25    1
    29    27    28    1
    30    27    29    1
    31    29    30    1
    32    29    31    1
    33    31    23    1
    34    31    32    1
    35    16    26    1
    36    33    20    1
    37    34    35    1
    38    36    35    1
    39    36    37    1
    40    38    37    1
    41    39    38    1
    42    39    40    1
    43    39    41    1
    44    41    36    1
    45    41    42    1
    46    38    21    1
    47     1    43    1
    48     3    44    1
    49     4    45    1
    50     8    46    1
    51    12    47    1
    52    13    48    1
    53    15    49    1
    54    16    50    1
    55    18    51    1
    56    19    52    1
    57    22    53    1
    58    22    54    1
    59    23    55    1
    60    25    56    1
    61    27    57    1
    62    28    58    1
    63    29    59    1
    64    30    60    1
    65    31    61    1
    66    32    62    1
    67    33    63    1
    68    33    64    1
    69    33    65    1
    70    34    66    1
    71    35    67    1
    72    35    68    1
    73    36    69    1
    74    38    70    1
    75    39    71    1
    76    40    72    1
    77    41    73    1
    78    42    74    1
