@<TRIPOS>MOLECULE
*****
 76 80 0 0 0
SMALL
USER_CHARGES

@<TRIPOS>ATOM
      1 C           6.1498   -5.1581    0.7868 C.ar    1  NONAME1    -0.0509
      2 C           5.5798   -4.4349   -0.2694 C.ar    1  NONAME1    -0.0206
      3 C           5.1303   -5.1297   -1.3973 C.ar    1  NONAME1    -0.0509
      4 C           5.2723   -6.5178   -1.4739 C.ar    1  NONAME1    -0.0194
      5 C           5.8644   -7.2329   -0.4308 C.ar    1  NONAME1     0.1201
      6 C           6.2893   -6.5494    0.7080 C.ar    1  NONAME1    -0.0194
      7 C           5.5547   -2.9614   -0.2501 C.2     1  NONAME1    -0.0203
      8 C           6.7469   -2.3443   -0.2868 C.2     1  NONAME1     0.0274
      9 C           6.8896   -0.9005   -0.5045 C.2     1  NONAME1     0.3372
     10 O           5.7475   -0.1680   -0.5733 O.3     1  NONAME1    -0.4263
     11 C           4.4781   -0.7086   -0.2528 C.2     1  NONAME1     0.1227
     12 C           4.2448   -2.2056   -0.3849 C.3     1  NONAME1     0.0731
     13 C           3.5345    0.1307    0.1937 C.2     1  NONAME1     0.0187
     14 C           2.2551   -0.3571    0.6236 C.2     1  NONAME1     0.1218
     15 C           2.0629   -1.6574    0.8717 C.2     1  NONAME1    -0.0126
     16 C           3.1011   -2.7181    0.5842 C.3     1  NONAME1     0.0972
     17 O           8.0016   -0.4052   -0.6438 O.2     1  NONAME1    -0.2452
     18 H           6.7433   -7.0660    1.5479 H       1  NONAME1     0.0654
     19 O           5.9500   -8.5802   -0.6384 O.3     1  NONAME1    -0.4951
     20 O           1.3225    0.5933    0.9655 O.2     1  NONAME1    -0.4952
     21 O          -2.4969   -3.4464   -1.0895 O.3     1  NONAME1    -0.3460
     22 C          -1.6810   -3.3658    0.0765 C.3     1  NONAME1     0.0796
     23 C          -0.4867   -4.3086   -0.0715 C.3     1  NONAME1     0.1134
     24 O           0.3932   -4.1267    1.0493 O.3     1  NONAME1    -0.3405
     25 C           1.6919   -4.6832    0.8181 C.3     1  NONAME1     0.1886
     26 O           2.4683   -3.8485   -0.0531 O.3     1  NONAME1    -0.3402
     27 C           1.5995   -6.1001    0.1912 C.3     1  NONAME1     0.1341
     28 O           2.5623   -6.9987    0.7684 O.3     1  NONAME1    -0.3841
     29 C           0.2098   -6.6827    0.4346 C.3     1  NONAME1     0.1141
     30 O           0.1120   -8.0074   -0.1116 O.3     1  NONAME1    -0.3864
     31 C          -0.8757   -5.7980   -0.1945 C.3     1  NONAME1     0.1119
     32 O          -2.1240   -6.1131    0.4457 O.3     1  NONAME1    -0.3865
     33 C           0.5620    0.9860   -0.1775 C.3     1  NONAME1     0.0788
     34 O          -6.4394    0.6766    0.5336 O.3     1  NONAME1    -0.3924
     35 C          -5.3191    0.2620   -0.2301 C.3     1  NONAME1     0.0730
     36 C          -4.7490   -1.0693    0.2623 C.3     1  NONAME1     0.1131
     37 O          -3.5734   -1.3841   -0.5266 O.3     1  NONAME1    -0.3405
     38 C          -3.7222   -2.7310   -0.9923 C.3     1  NONAME1     0.1880
     39 C          -4.7613   -3.4015   -0.0949 C.3     1  NONAME1     0.1341
     40 O          -5.4000   -4.5237   -0.6989 O.3     1  NONAME1    -0.3841
     41 C          -5.7208   -2.2473    0.1210 C.3     1  NONAME1     0.1141
     42 O          -6.5203   -2.4723    1.2760 O.3     1  NONAME1    -0.3864
     43 C           6.7150   -9.3276    0.2999 C.3     1  NONAME1     0.0788
     44 H           6.5141   -4.6434    1.6743 H       1  NONAME1     0.0625
     45 H           4.6976   -4.5993   -2.2429 H       1  NONAME1     0.0625
     46 H           4.9356   -7.0451   -2.3642 H       1  NONAME1     0.0654
     47 H           7.6887   -2.8833   -0.2586 H       1  NONAME1     0.0692
     48 H           3.9008   -2.3701   -1.4179 H       1  NONAME1     0.0457
     49 H           3.7336    1.1941    0.2889 H       1  NONAME1     0.0688
     50 H           1.1272   -1.9451    1.3356 H       1  NONAME1     0.0634
     51 H           3.5479   -3.0408    1.5338 H       1  NONAME1     0.0653
     52 H          -1.3123   -2.3391    0.1900 H       1  NONAME1     0.0587
     53 H          -2.2372   -3.6043    0.9886 H       1  NONAME1     0.0587
     54 H           0.0545   -4.0212   -0.9838 H       1  NONAME1     0.0647
     55 H           2.1963   -4.7571    1.7888 H       1  NONAME1     0.0938
     56 H           1.8135   -6.0764   -0.8845 H       1  NONAME1     0.0671
     57 H           3.4422   -6.6527    0.5281 H       1  NONAME1     0.2101
     58 H           0.0352   -6.7999    1.5121 H       1  NONAME1     0.0648
     59 H           0.9350   -8.4559    0.1733 H       1  NONAME1     0.2100
     60 H          -1.0206   -6.0435   -1.2535 H       1  NONAME1     0.0647
     61 H          -2.1892   -7.0884    0.4132 H       1  NONAME1     0.2100
     62 H           1.1970    1.4812   -0.9202 H       1  NONAME1     0.0660
     63 H          -0.1974    1.7010    0.1522 H       1  NONAME1     0.0660
     64 H           0.0511    0.1266   -0.6259 H       1  NONAME1     0.0660
     65 H          -6.7139    1.5469    0.1983 H       1  NONAME1     0.2095
     66 H          -5.6145    0.1883   -1.2829 H       1  NONAME1     0.0584
     67 H          -4.5477    1.0381   -0.1691 H       1  NONAME1     0.0584
     68 H          -4.4375   -0.9630    1.3088 H       1  NONAME1     0.0647
     69 H          -4.1125   -2.6783   -2.0162 H       1  NONAME1     0.0937
     70 H          -4.3529   -3.7419    0.8618 H       1  NONAME1     0.0671
     71 H          -4.6931   -5.1872   -0.8255 H       1  NONAME1     0.2101
     72 H          -6.3903   -2.1258   -0.7392 H       1  NONAME1     0.0648
     73 H          -7.0001   -3.3059    1.1140 H       1  NONAME1     0.2100
     74 H           6.2311   -9.3357    1.2818 H       1  NONAME1     0.0660
     75 H           6.7643  -10.3610   -0.0566 H       1  NONAME1     0.0660
     76 H           7.7407   -8.9493    0.3673 H       1  NONAME1     0.0660
@<TRIPOS>BOND
     1     1     2   ar
     2     2     3   ar
     3     3     4   ar
     4     4     5   ar
     5     5     6   ar
     6     1     6   ar
     7     7     8    2
     8     8     9    1
     9     9    10    1
    10    10    11    1
    11    11    12    1
    12     7    12    1
    13    13    14    1
    14    14    15    2
    15    15    16    1
    16    13    11    2
    17    16    12    1
    18     9    17    2
    19     7     2    1
    20     6    18    1
    21     5    19    1
    22    14    20    1
    23    21    22    1
    24    23    22    1
    25    23    24    1
    26    25    24    1
    27    25    26    1
    28    27    25    1
    29    27    28    1
    30    27    29    1
    31    29    30    1
    32    29    31    1
    33    31    23    1
    34    31    32    1
    35    16    26    1
    36    33    20    1
    37    34    35    1
    38    36    35    1
    39    36    37    1
    40    38    37    1
    41    39    38    1
    42    39    40    1
    43    39    41    1
    44    41    36    1
    45    41    42    1
    46    38    21    1
    47    43    19    1
    48     1    44    1
    49     3    45    1
    50     4    46    1
    51     8    47    1
    52    12    48    1
    53    13    49    1
    54    15    50    1
    55    16    51    1
    56    22    52    1
    57    22    53    1
    58    23    54    1
    59    25    55    1
    60    27    56    1
    61    28    57    1
    62    29    58    1
    63    30    59    1
    64    31    60    1
    65    32    61    1
    66    33    62    1
    67    33    63    1
    68    33    64    1
    69    34    65    1
    70    35    66    1
    71    35    67    1
    72    36    68    1
    73    38    69    1
    74    39    70    1
    75    40    71    1
    76    41    72    1
    77    42    73    1
    78    43    74    1
    79    43    75    1
    80    43    76    1
