@<TRIPOS>MOLECULE
*****
 32 35 0 0 0
SMALL
USER_CHARGES

@<TRIPOS>ATOM
      1 C1         -4.4959   -3.8292    0.1369 C.ar    1  NONAME1    -0.0053
      2 C2         -5.6915   -3.0978    0.0977 C.ar    1  NONAME1     0.0291
      3 C3         -6.9140   -3.7967   -0.0177 C.ar    1  NONAME1     0.1399
      4 C4         -6.9405   -5.1939   -0.0756 C.ar    1  NONAME1     0.0264
      5 C5         -5.7473   -5.8949   -0.0160 C.ar    1  NONAME1     0.1618
      6 C6         -4.5353   -5.2177    0.0632 C.ar    1  NONAME1     0.1590
      7 C7         -5.7787   -1.6247    0.1593 C.ar    1  NONAME1     0.0067
      8 C8         -4.7264   -0.7996    0.2718 C.ar    1  NONAME1     0.0315
      9 C9         -4.8502    0.6704    0.3305 C.ar    1  NONAME1     0.3378
     10 O1         -6.1257    1.2118    0.2661 O.2     1  NONAME1    -0.4219
     11 C10        -7.2466    0.3747    0.1504 C.ar    1  NONAME1     0.1466
     12 C11        -7.0941   -1.0018    0.0974 C.ar    1  NONAME1     0.0678
     13 C12        -8.5056    0.9719    0.0921 C.ar    1  NONAME1     0.0233
     14 C13        -9.6371    0.1626   -0.0221 C.ar    1  NONAME1     0.1271
     15 C14        -9.4880   -1.2296   -0.0764 C.ar    1  NONAME1     0.0232
     16 C15        -8.2198   -1.8109   -0.0165 C.ar    1  NONAME1     0.1432
     17 O2         -3.8502    1.3725    0.4323 O.2     1  NONAME1    -0.2452
     18 O3         -8.1540   -3.1844   -0.0738 O.3     1  NONAME1    -0.4544
     19 O4         -3.3560   -5.9053    0.0384 O.3     1  NONAME1    -0.5033
     20 O5         -5.7808   -7.2588   -0.0075 O.3     1  NONAME1    -0.5032
     21 O6        -10.9318    0.5988   -0.0898 O.3     1  NONAME1    -0.4949
     22 C16       -11.1430    2.0045   -0.0315 C.3     1  NONAME1     0.0788
     23 H22        -3.4956   -6.6671   -0.5547 H       1  NONAME1     0.2923
     24 H23        -5.0993   -7.5452    0.6286 H       1  NONAME1     0.2923
     25 H24       -10.6714    2.5095   -0.8810 H       1  NONAME1     0.0660
     26 H25       -10.7910    2.4171    0.9198 H       1  NONAME1     0.0660
     27 H26       -12.2207    2.1834   -0.0939 H       1  NONAME1     0.0660
     28 H         -10.3681   -1.8619   -0.1654 H       1  UNL1        0.0691
     29 H          -8.5692    2.0533    0.1375 H       1  UNL1        0.0691
     30 H          -3.7023   -1.1460    0.3285 H       1  UNL1        0.0695
     31 H          -7.8851   -5.7241   -0.1482 H       1  UNL1        0.0692
     32 H          -3.5273   -3.3458    0.2066 H       1  UNL1        0.0662
@<TRIPOS>BOND
     1     1     2   ar
     2     3     4   ar
     3     5     6   ar
     4     8     9   ar
     5     9    10   ar
     6    10    11   ar
     7    11    12   ar
     8     7    12   ar
     9    13    14   ar
    10    15    16   ar
    11    16    18    1
    12     7     2    1
    13     6    19    1
    14     5    20    1
    15     3    18    1
    16    14    21    1
    17    14    15   ar
    18    16    12   ar
    19    13    11   ar
    20     9    17    2
    21     7     8   ar
    22     4     5   ar
    23     2     3   ar
    24     1     6   ar
    25    22    21    1
    26    19    23    1
    27    20    24    1
    28    22    25    1
    29    22    26    1
    30    22    27    1
    31    15    28    1
    32    13    29    1
    33     8    30    1
    34     4    31    1
    35     1    32    1
