@<TRIPOS>MOLECULE
*****
 32 35 0 0 0
SMALL
USER_CHARGES

@<TRIPOS>ATOM
      1 C1         -8.0245    6.6615   -0.0445 C.ar    1  NONAME1     0.0233
      2 C2         -9.2058    5.9138   -0.0466 C.ar    1  NONAME1     0.1271
      3 C3         -9.1385    4.5166   -0.0622 C.ar    1  NONAME1     0.0232
      4 C4         -7.8943    3.8755   -0.0557 C.ar    1  NONAME1     0.1432
      5 C5         -6.7211    4.6255   -0.0406 C.ar    1  NONAME1     0.0678
      6 C6         -6.7958    6.0082   -0.0389 C.ar    1  NONAME1     0.1466
      7 O1         -7.9014    2.4976   -0.0601 O.3     1  NONAME1    -0.4544
      8 C7         -6.6927    1.8217   -0.0361 C.ar    1  NONAME1     0.1399
      9 C8         -5.4318    2.4588   -0.0171 C.ar    1  NONAME1     0.0291
     10 C9         -5.4389    3.9350   -0.0208 C.ar    1  NONAME1     0.0067
     11 O2         -5.6303    6.7879   -0.0240 O.2     1  NONAME1    -0.4219
     12 C10        -4.3402    4.7054   -0.0009 C.ar    1  NONAME1     0.0315
     13 C11        -4.3833    6.1813   -0.0015 C.ar    1  NONAME1     0.3378
     14 C12        -6.7978    0.4249   -0.0308 C.ar    1  NONAME1     0.0264
     15 C13        -5.6393   -0.3373   -0.0068 C.ar    1  NONAME1     0.1618
     16 C14        -4.3931    0.2822    0.0107 C.ar    1  NONAME1     0.1590
     17 C15        -4.2762    1.6674    0.0059 C.ar    1  NONAME1    -0.0053
     18 O3         -3.3435    6.8309    0.0180 O.2     1  NONAME1    -0.2452
     19 O4         -5.6692   -1.7039    0.0010 O.3     1  NONAME1    -0.5032
     20 O5         -3.2571   -0.4762    0.0334 O.3     1  NONAME1    -0.5033
     21 O6        -10.3511    6.6613   -0.0336 O.3     1  NONAME1    -0.4949
     22 C16       -11.5796    5.9588    0.1092 C.3     1  NONAME1     0.0788
     23 H1         -8.0660    7.7473   -0.0390 H       1  NONAME1     0.0691
     24 H2        -10.0325    3.9025   -0.0788 H       1  NONAME1     0.0691
     25 H3         -3.3340    4.3060    0.0186 H       1  NONAME1     0.0695
     26 H4         -7.7791   -0.0373   -0.0449 H       1  NONAME1     0.0692
     27 H5         -3.2801    2.0966    0.0210 H       1  NONAME1     0.0662
     28 H6         -6.5988   -1.9913   -0.0098 H       1  NONAME1     0.2923
     29 H7         -3.5748   -1.4016    0.0317 H       1  NONAME1     0.2923
     30 H8        -12.3773    6.7000    0.2183 H       1  NONAME1     0.0660
     31 H9        -11.7936    5.3639   -0.7845 H       1  NONAME1     0.0660
     32 H10       -11.5821    5.3354    1.0096 H       1  NONAME1     0.0660
@<TRIPOS>BOND
     1     1     2   ar
     2     2     3   ar
     3     3     4   ar
     4     4     5   ar
     5     5     6   ar
     6     1     6   ar
     7     7     8    1
     8     8     9   ar
     9     9    10    1
    10     4     7    1
    11     5    10   ar
    12    12    13   ar
    13    11    13   ar
    14    11     6   ar
    15    10    12   ar
    16    14    15   ar
    17    15    16   ar
    18    16    17   ar
    19     8    14   ar
    20     9    17   ar
    21    13    18    2
    22    15    19    1
    23    16    20    1
    24     2    21    1
    25    21    22    1
    26     1    23    1
    27     3    24    1
    28    12    25    1
    29    14    26    1
    30    17    27    1
    31    19    28    1
    32    20    29    1
    33    22    30    1
    34    22    31    1
    35    22    32    1
