@<TRIPOS>MOLECULE
*****
 37 40 0 0 0
SMALL
USER_CHARGES

@<TRIPOS>ATOM
      1 C          -4.3622   -3.9119   -0.0015 C.ar    1  NONAME1    -0.0053
      2 C          -5.5640   -3.1987   -0.0097 C.ar    1  NONAME1     0.0288
      3 C          -6.7733   -3.9125   -0.1194 C.ar    1  NONAME1     0.1399
      4 C          -6.7849   -5.3129   -0.1980 C.ar    1  NONAME1     0.0266
      5 C          -5.5855   -6.0183   -0.1716 C.ar    1  NONAME1     0.1648
      6 C          -4.3871   -5.3017   -0.0819 C.ar    1  NONAME1     0.1593
      7 C          -5.6737   -1.7337    0.0909 C.2     1  NONAME1     0.0018
      8 C          -4.6554   -0.8857    0.3022 C.2     1  NONAME1    -0.0080
      9 C          -4.8264    0.5950    0.4500 C.3     1  NONAME1     0.2201
     10 O          -6.1020    1.1432    0.1136 O.3     1  NONAME1    -0.4593
     11 C          -7.1501    0.2724    0.0254 C.ar    1  NONAME1     0.1389
     12 C          -6.9889   -1.1095    0.0052 C.ar    1  NONAME1     0.0669
     13 C          -8.4263    0.8325   -0.0812 C.ar    1  NONAME1     0.0227
     14 C          -9.5468    0.0061   -0.1941 C.ar    1  NONAME1     0.1271
     15 C          -9.3782   -1.3817   -0.2146 C.ar    1  NONAME1     0.0232
     16 C          -8.1029   -1.9392   -0.1192 C.ar    1  NONAME1     0.1431
     17 O          -3.8482    1.2051   -0.3787 O.3     1  NONAME1    -0.3546
     18 O          -8.0215   -3.3142   -0.1547 O.3     1  NONAME1    -0.4544
     19 O          -3.1903   -5.9676   -0.0648 O.3     1  NONAME1    -0.5033
     20 O          -5.4443   -7.3807   -0.2311 O.3     1  NONAME1    -0.4913
     21 O         -10.8456    0.4237   -0.2962 O.3     1  NONAME1    -0.4949
     22 C         -11.0782    1.8254   -0.2290 C.3     1  NONAME1     0.0788
     23 C          -6.6448   -8.1449   -0.1951 C.3     1  NONAME1     0.0790
     24 H          -4.6042    0.8716    1.4873 H       1  NONAME1     0.1104
     25 H          -3.9032    2.1499   -0.1645 H       1  NONAME1     0.2139
     26 H          -3.4253   -6.9131   -0.1398 H       1  NONAME1     0.2923
     27 H         -10.6071    2.3440   -1.0705 H       1  NONAME1     0.0660
     28 H         -12.1579    1.9887   -0.2995 H       1  NONAME1     0.0660
     29 H         -10.7412    2.2362    0.7285 H       1  NONAME1     0.0660
     30 H          -7.2514   -7.9659   -1.0888 H       1  NONAME1     0.0660
     31 H          -7.2149   -7.9440    0.7182 H       1  NONAME1     0.0660
     32 H          -6.3664   -9.2031   -0.1873 H       1  NONAME1     0.0660
     33 H         -10.2460   -2.0291   -0.3097 H       1  UNL1        0.0691
     34 H          -8.5113    1.9137   -0.0751 H       1  UNL1        0.0691
     35 H          -3.6354   -1.2377    0.4071 H       1  UNL1        0.0640
     36 H          -3.4005   -3.4150    0.0649 H       1  UNL1        0.0662
     37 H          -7.7437   -5.8125   -0.2810 H       1  UNL1        0.0692
@<TRIPOS>BOND
     1     1     2   ar
     2     3     4   ar
     3     5     6   ar
     4     8     9    1
     5     9    10    1
     6    10    11    1
     7    11    12   ar
     8     7    12    1
     9    13    14   ar
    10    15    16   ar
    11    16    18    1
    12     7     2    1
    13     6    19    1
    14     5    20    1
    15     3    18    1
    16    14    21    1
    17    14    15   ar
    18    16    12   ar
    19    13    11   ar
    20     9    17    1
    21     7     8    2
    22     4     5   ar
    23     2     3   ar
    24     1     6   ar
    25    22    21    1
    26    20    23    1
    27     9    24    1
    28    17    25    1
    29    19    26    1
    30    22    27    1
    31    22    28    1
    32    22    29    1
    33    23    30    1
    34    23    31    1
    35    23    32    1
    36    15    33    1
    37    13    34    1
    38     8    35    1
    39     1    36    1
    40     4    37    1
