@<TRIPOS>MOLECULE
*****
 81 85 0 0 0
SMALL
USER_CHARGES

@<TRIPOS>ATOM
      1 C1        -13.3040    3.6785   -1.4045 C.3     1  NONAME1    -0.0447
      2 C2        -14.7727    3.3826   -1.1392 C.3     1  NONAME1    -0.0258
      3 C3        -14.9259    2.2516   -0.1428 C.3     1  NONAME1     0.0606
      4 C4        -13.7337    1.2738   -0.2333 C.3     1  NONAME1    -0.0056
      5 C5        -12.3747    2.1050    0.0000 C.3     1  NONAME1    -0.0278
      6 C6        -12.3747    3.6450    0.0000 C.3     1  NONAME1    -0.0250
      7 C7        -10.7212    3.7334   -0.6573 C.3     1  NONAME1    -0.0257
      8 C8        -11.0930    1.2129   -0.1928 C.3     1  NONAME1    -0.0486
      9 C9         -9.7837    1.7600    0.4380 C.3     1  NONAME1    -0.0463
     10 C10        -9.6940    3.3101    0.4482 C.3     1  NONAME1    -0.0194
     11 C11       -10.2295    4.9010   -1.5333 C.3     1  NONAME1    -0.0306
     12 C12        -8.1706    3.9052    0.2611 C.3     1  NONAME1    -0.0051
     13 C13        -8.2384    5.4017   -0.1333 C.2     1  NONAME1    -0.0626
     14 C14        -9.2788    5.8352   -0.8815 C.2     1  NONAME1    -0.0836
     15 C15        -6.9632    6.2438   -0.2933 C.3     1  NONAME1    -0.0008
     16 C16        -7.2931    3.2948   -0.8654 C.3     1  NONAME1    -0.0424
     17 C17        -5.9676    4.0768   -1.1928 C.3     1  NONAME1    -0.0359
     18 C18        -5.6594    5.4017   -0.4056 C.3     1  NONAME1     0.0743
     19 C19        -6.7873    7.5964    0.4726 C.3     1  NONAME1    -0.0337
     20 C20        -4.6322    6.2776   -1.1835 C.3     1  NONAME1    -0.0364
     21 C21        -4.3974    7.6393   -0.5095 C.3     1  NONAME1    -0.0492
     22 C22        -5.6928    8.4370   -0.2650 C.3     1  NONAME1    -0.0407
     23 C23       -13.9250    0.2057    0.8851 C.3     1  NONAME1    -0.0572
     24 C24       -13.7372    0.4784   -1.5628 C.3     1  NONAME1    -0.0572
     25 O1        -16.1678    1.5914   -0.3645 O.3     1  NONAME1    -0.3912
     26 C25       -12.3747    5.1850    0.0000 C.3     1  NONAME1    -0.0590
     27 C26       -10.1931    3.8019    1.8623 C.3     1  NONAME1    -0.0585
     28 C27        -8.0857    8.4079    0.6029 C.3     1  NONAME1    -0.0616
     29 C28        -4.9455    5.1132    0.9243 C.2     1  NONAME1     0.3115
     30 H1         -7.0811    6.5967   -1.3363 H       1  NONAME1     0.0359
     31 H2        -10.7157    2.9902   -1.4654 H       1  NONAME1     0.0315
     32 C29        -7.4272    3.6044    1.5933 C.3     1  NONAME1    -0.0553
     33 C30        -5.3551    9.7470    0.4556 C.3     1  NONAME1    -0.0622
     34 O2         -5.1634    5.6017    2.0204 O.2     1  NONAME1    -0.2504
     35 O3         -3.9098    4.2553    0.8021 O.3     1  NONAME1    -0.4802
     36 H3        -13.2719    4.6056   -1.9901 H       1  NONAME1     0.0271
     37 H4        -12.8838    2.9740   -2.1335 H       1  NONAME1     0.0271
     38 H5        -15.2769    4.2755   -0.7498 H       1  NONAME1     0.0290
     39 H6        -15.2758    3.1477   -2.0854 H       1  NONAME1     0.0290
     40 H7        -14.9650    2.6715    0.8710 H       1  NONAME1     0.0599
     41 H8        -12.3845    2.0469    1.1044 H       1  NONAME1     0.0312
     42 H9        -11.2488    0.2158    0.2330 H       1  NONAME1     0.0268
     43 H10       -10.9346    1.0269   -1.2636 H       1  NONAME1     0.0268
     44 H11        -8.9549    1.3225   -0.1272 H       1  NONAME1     0.0271
     45 H12        -9.6905    1.3611    1.4553 H       1  NONAME1     0.0271
     46 H13        -9.6643    4.4700   -2.3761 H       1  NONAME1     0.0310
     47 H14       -11.0113    5.4371   -2.0742 H       1  NONAME1     0.0310
     48 H15        -9.2779    6.8329   -1.3146 H       1  NONAME1     0.0572
     49 H16        -7.8703    3.2103   -1.7943 H       1  NONAME1     0.0274
     50 H17        -7.0153    2.2638   -0.6119 H       1  NONAME1     0.0274
     51 H18        -5.1321    3.3723   -1.0982 H       1  NONAME1     0.0276
     52 H19        -6.0077    4.3171   -2.2645 H       1  NONAME1     0.0276
     53 H20        -6.4603    7.4044    1.4973 H       1  NONAME1     0.0307
     54 H21        -3.6690    5.7608   -1.2799 H       1  NONAME1     0.0276
     55 H22        -4.9858    6.4510   -2.2083 H       1  NONAME1     0.0276
     56 H23        -3.8671    7.4994    0.4404 H       1  NONAME1     0.0268
     57 H24        -3.7240    8.2276   -1.1459 H       1  NONAME1     0.0268
     58 H25        -6.0889    8.7127   -1.2533 H       1  NONAME1     0.0301
     59 H26       -14.8679   -0.3393    0.7592 H       1  NONAME1     0.0236
     60 H27       -13.9464    0.6666    1.8789 H       1  NONAME1     0.0236
     61 H28       -13.1278   -0.5434    0.8804 H       1  NONAME1     0.0236
     62 H29       -14.6694   -0.0866   -1.6804 H       1  NONAME1     0.0236
     63 H30       -13.6417    1.1094   -2.4481 H       1  NONAME1     0.0236
     64 H31       -12.9230   -0.2534   -1.5941 H       1  NONAME1     0.0236
     65 H32       -16.8726    2.2559   -0.2789 H       1  NONAME1     0.2098
     66 H33       -11.6254    5.6113    0.6743 H       1  NONAME1     0.0235
     67 H34       -12.4092    5.8161   -0.8889 H       1  NONAME1     0.0235
     68 H35       -13.3073    5.4639    0.5189 H       1  NONAME1     0.0235
     69 H36       -10.0582    4.8817    1.9807 H       1  NONAME1     0.0235
     70 H37        -9.6563    3.3206    2.6858 H       1  NONAME1     0.0235
     71 H38       -11.2376    3.5755    2.0767 H       1  NONAME1     0.0235
     72 H39        -7.9375    9.2929    1.2296 H       1  NONAME1     0.0233
     73 H40        -8.8758    7.8256    1.0863 H       1  NONAME1     0.0233
     74 H41        -8.4438    8.7519   -0.3729 H       1  NONAME1     0.0233
     75 H42        -7.5298    4.4192    2.3167 H       1  NONAME1     0.0238
     76 H43        -6.3727    3.3747    1.4548 H       1  NONAME1     0.0238
     77 H44        -7.7856    2.6802    2.0595 H       1  NONAME1     0.0238
     78 H45        -4.5210   10.2591   -0.0371 H       1  NONAME1     0.0233
     79 H46        -5.0746    9.5666    1.4981 H       1  NONAME1     0.0233
     80 H47        -6.2017   10.4404    0.4409 H       1  NONAME1     0.0233
     81 H48        -3.5428    4.2143    1.7108 H       1  NONAME1     0.2951
@<TRIPOS>BOND
     1     1     2    1
     2     2     3    1
     3     3     4    1
     4     4     5    1
     5     5     6    1
     6     1     6    1
     7     8     9    1
     8     9    10    1
     9     7    10    1
    10     5     8    1
    11     7     6    1
    12    12    13    1
    13    13    14    2
    14    11    14    1
    15    10    12    1
    16    11     7    1
    17    16    17    1
    18    17    18    1
    19    15    18    1
    20    15    13    1
    21    12    16    1
    22    20    21    1
    23    21    22    1
    24    19    22    1
    25    18    20    1
    26    19    15    1
    27     4    23    1
    28     4    24    1
    29     3    25    1
    30     6    26    1
    31    10    27    1
    32    19    28    1
    33    18    29    1
    34    15    30    1
    35     7    31    1
    36    12    32    1
    37    22    33    1
    38    29    34    2
    39    29    35    1
    40     1    36    1
    41     1    37    1
    42     2    38    1
    43     2    39    1
    44     3    40    1
    45     5    41    1
    46     8    42    1
    47     8    43    1
    48     9    44    1
    49     9    45    1
    50    11    46    1
    51    11    47    1
    52    14    48    1
    53    16    49    1
    54    16    50    1
    55    17    51    1
    56    17    52    1
    57    19    53    1
    58    20    54    1
    59    20    55    1
    60    21    56    1
    61    21    57    1
    62    22    58    1
    63    23    59    1
    64    23    60    1
    65    23    61    1
    66    24    62    1
    67    24    63    1
    68    24    64    1
    69    25    65    1
    70    26    66    1
    71    26    67    1
    72    26    68    1
    73    27    69    1
    74    27    70    1
    75    27    71    1
    76    28    72    1
    77    28    73    1
    78    28    74    1
    79    32    75    1
    80    32    76    1
    81    32    77    1
    82    33    78    1
    83    33    79    1
    84    33    80    1
    85    35    81    1
