@<TRIPOS>MOLECULE
*****
 81 85 0 0 0
SMALL
USER_CHARGES

@<TRIPOS>ATOM
      1 C1         -4.1100    0.9056   -1.3482 C.3     1  NONAME11   -0.0447
      2 C2         -5.5214    0.3295   -1.1434 C.3     1  NONAME11   -0.0258
      3 C3         -5.9687    0.2819    0.3235 C.3     1  NONAME11    0.0606
      4 C4         -4.8880   -0.3271    1.2742 C.3     1  NONAME11   -0.0056
      5 C5         -3.4420    0.2440    0.9635 C.3     1  NONAME11   -0.0278
      6 C6         -3.5101    1.3951    0.0000 C.3     1  NONAME11   -0.0250
      7 C7         -2.1764    2.1651    0.0000 C.3     1  NONAME11   -0.0257
      8 C8         -2.4435   -0.8173    0.3098 C.3     1  NONAME11   -0.0486
      9 C9         -1.2360   -0.2228   -0.5066 C.3     1  NONAME11   -0.0463
     10 C10        -0.8147    1.1072    0.0981 C.3     1  NONAME11   -0.0194
     11 C11        -0.3043    4.0412    1.1510 C.2     1  NONAME11   -0.0836
     12 C12        -1.7324    3.2257    1.4629 C.3     1  NONAME11   -0.0306
     13 C13         0.5100    2.0451   -0.6314 C.3     1  NONAME11   -0.0051
     14 C14         0.4909    3.7051    0.0000 C.2     1  NONAME11   -0.0626
     15 C15         1.8246    4.4751    0.0000 C.3     1  NONAME11   -0.0008
     16 C16         1.8796    1.4315   -0.3237 C.3     1  NONAME11   -0.0424
     17 C17         2.5189    2.0183    0.9380 C.3     1  NONAME11   -0.0359
     18 C18         2.8685    3.5172    0.8014 C.3     1  NONAME11    0.0743
     19 C19         2.5801    6.5883    1.3808 C.3     1  NONAME11   -0.0407
     20 C20         1.8246    6.0151    0.0000 C.3     1  NONAME11   -0.0337
     21 C21         3.0827    4.1614    2.1966 C.3     1  NONAME11   -0.0364
     22 C22         3.5527    5.6220    2.1188 C.3     1  NONAME11   -0.0492
     23 C23         3.3151    7.9037    1.0836 C.3     1  NONAME11   -0.0622
     24 C24         0.2758    2.1277   -2.1476 C.3     1  NONAME11   -0.0553
     25 O1         -6.3116    1.6070    0.7374 O.3     1  NONAME11   -0.3912
     26 C25        -3.5101    2.9351    0.0000 C.3     1  NONAME11   -0.0590
     27 C26        -0.3430    0.7302    1.5503 C.3     1  NONAME11   -0.0585
     28 H1          3.1583    5.2451    0.0000 H       1  NONAME11    0.0359
     29 C27         0.4909    6.7851    0.0000 C.3     1  NONAME11   -0.0616
     30 C28        -4.9788   -1.8677    1.1810 C.3     1  NONAME11   -0.0572
     31 C29        -5.2359    0.0342    2.7414 C.3     1  NONAME11   -0.0572
     32 H2         -0.8427    2.9351    0.0000 H       1  NONAME11    0.0315
     33 O2          5.2912    3.2295    0.7710 O.3     1  NONAME11   -0.4802
     34 C30         4.2013    3.4344    0.0049 C.2     1  NONAME11    0.3115
     35 O3          4.3225    3.4817   -1.2098 O.2     1  NONAME11   -0.2504
     36 H3         -4.1482    1.6769   -2.1278 H       1  NONAME11    0.0271
     37 H4         -3.5073    0.1278   -1.8204 H       1  NONAME11    0.0271
     38 H5         -6.2288    0.9379   -1.7211 H       1  NONAME11    0.0290
     39 H6         -5.5563   -0.6787   -1.5725 H       1  NONAME11    0.0290
     40 H7         -6.8955   -0.3006    0.3956 H       1  NONAME11    0.0599
     41 H8         -3.0274    0.5896    1.9130 H       1  NONAME11    0.0312
     42 H9         -2.9660   -1.4915   -0.3760 H       1  NONAME11    0.0268
     43 H10        -2.0555   -1.4589    1.1112 H       1  NONAME11    0.0268
     44 H11        -0.4127   -0.9473   -0.5029 H       1  NONAME11    0.0271
     45 H12        -1.5007   -0.0921   -1.5589 H       1  NONAME11    0.0271
     46 H13        -0.1000    4.8602    1.8275 H       1  NONAME11    0.0572
     47 H14        -2.4536    4.0288    1.6482 H       1  NONAME11    0.0310
     48 H15        -1.6684    2.6290    2.3741 H       1  NONAME11    0.0310
     49 H16         2.5584    1.5867   -1.1706 H       1  NONAME11    0.0274
     50 H17         1.7982    0.3430   -0.2308 H       1  NONAME11    0.0274
     51 H18         3.4238    1.4307    1.1497 H       1  NONAME11    0.0276
     52 H19         1.9088    1.8726    1.8253 H       1  NONAME11    0.0276
     53 H20         1.8172    6.8135    2.1369 H       1  NONAME11    0.0301
     54 H21         2.3046    6.3926   -0.9300 H       1  NONAME11    0.0307
     55 H22         3.8187    3.5891    2.7750 H       1  NONAME11    0.0276
     56 H23         2.1498    4.1214    2.7717 H       1  NONAME11    0.0276
     57 H24         4.5453    5.6641    1.6524 H       1  NONAME11    0.0268
     58 H25         3.6988    5.9925    3.1422 H       1  NONAME11    0.0268
     59 H26         3.8146    8.2804    1.9828 H       1  NONAME11    0.0233
     60 H27         4.0766    7.7582    0.3102 H       1  NONAME11    0.0233
     61 H28         2.6290    8.6840    0.7440 H       1  NONAME11    0.0233
     62 H29        -0.7101    2.5428   -2.3802 H       1  NONAME11    0.0238
     63 H30         1.0228    2.7712   -2.6256 H       1  NONAME11    0.0238
     64 H31         0.3441    1.1373   -2.6091 H       1  NONAME11    0.0238
     65 H32        -7.0240    1.9240    0.1566 H       1  NONAME11    0.2098
     66 H33        -4.2019    3.1141   -0.8579 H       1  NONAME11    0.0235
     67 H34        -3.5101    4.4751    0.0000 H       1  NONAME11    0.0235
     68 H35        -4.2106    3.0261    0.8740 H       1  NONAME11    0.0235
     69 H36        -1.1104    0.2900    2.1847 H       1  NONAME11    0.0235
     70 H37         0.4566   -0.0187    1.5122 H       1  NONAME11    0.0235
     71 H38         0.0395    1.5721    2.1200 H       1  NONAME11    0.0235
     72 H39         0.9178    7.7811   -0.2269 H       1  NONAME11    0.0233
     73 H40        -0.8428    7.5551    0.0000 H       1  NONAME11    0.0233
     74 H41         0.2505    6.7097    1.0711 H       1  NONAME11    0.0233
     75 H42        -5.9527   -2.2231    1.5396 H       1  NONAME11    0.0236
     76 H43        -4.8803   -2.2281    0.1526 H       1  NONAME11    0.0236
     77 H44        -4.2141   -2.3541    1.7958 H       1  NONAME11    0.0236
     78 H45        -6.2610   -0.2634    2.9903 H       1  NONAME11    0.0236
     79 H46        -5.1433    1.1095    2.9287 H       1  NONAME11    0.0236
     80 H47        -4.5636   -0.4787    3.4394 H       1  NONAME11    0.0236
     81 H48         6.0247    3.1683    0.1238 H       1  NONAME11    0.2951
@<TRIPOS>BOND
     1     1     2    1
     2     2     3    1
     3     3     4    1
     4     4     5    1
     5     5     6    1
     6     1     6    1
     7     8     9    1
     8     9    10    1
     9     7    10    1
    10     5     8    1
    11     7     6    1
    12    11    12    1
    13    13    14    1
    14    11    14    2
    15    12     7    1
    16    10    13    1
    17    16    17    1
    18    17    18    1
    19    15    18    1
    20    13    16    1
    21    15    14    1
    22    19    20    1
    23    21    22    1
    24    19    22    1
    25    20    15    1
    26    18    21    1
    27    19    23    1
    28    13    24    1
    29     3    25    1
    30     6    26    1
    31    10    27    1
    32    15    28    1
    33    20    29    1
    34     4    30    1
    35     4    31    1
    36     7    32    1
    37    18    34    1
    38    33    34    1
    39    34    35    2
    40     1    36    1
    41     1    37    1
    42     2    38    1
    43     2    39    1
    44     3    40    1
    45     5    41    1
    46     8    42    1
    47     8    43    1
    48     9    44    1
    49     9    45    1
    50    11    46    1
    51    12    47    1
    52    12    48    1
    53    16    49    1
    54    16    50    1
    55    17    51    1
    56    17    52    1
    57    19    53    1
    58    20    54    1
    59    21    55    1
    60    21    56    1
    61    22    57    1
    62    22    58    1
    63    23    59    1
    64    23    60    1
    65    23    61    1
    66    24    62    1
    67    24    63    1
    68    24    64    1
    69    25    65    1
    70    26    66    1
    71    26    67    1
    72    26    68    1
    73    27    69    1
    74    27    70    1
    75    27    71    1
    76    29    72    1
    77    29    73    1
    78    29    74    1
    79    30    75    1
    80    30    76    1
    81    30    77    1
    82    31    78    1
    83    31    79    1
    84    31    80    1
    85    33    81    1
