@<TRIPOS>MOLECULE
*****
 43 44 0 0 0
SMALL
USER_CHARGES

@<TRIPOS>ATOM
      1 C1          4.9695   -2.8744    0.3783 C.3     1  NONAME1     0.1346
      2 C2          4.7806   -1.5157   -0.3090 C.3     1  NONAME1     0.0264
      3 C3          3.3988   -0.9177   -0.0293 C.3     1  NONAME1     0.1677
      4 C4          2.2627   -1.9051   -0.3225 C.3     1  NONAME1     0.0153
      5 C5          2.4814   -3.2919    0.2914 C.3     1  NONAME1     0.0877
      6 C6          3.8684   -3.8554   -0.0531 C.3     1  NONAME1     0.1180
      7 O1          6.2533   -3.4328    0.0306 O.3     1  NONAME1    -0.4555
      8 C7          7.3135   -2.9415    0.7151 C.2     1  NONAME1     0.3323
      9 C8          8.5285   -3.6295    0.2373 C.2     1  NONAME1     0.0231
     10 C9          9.7228   -3.3088    0.7574 C.2     1  NONAME1    -0.0477
     11 C10        10.9902   -3.9269    0.3460 C.ar    1  NONAME1    -0.0211
     12 C11        12.1514   -3.1345    0.3252 C.ar    1  NONAME1    -0.0509
     13 C12        11.0912   -5.2882    0.0306 C.ar    1  NONAME1    -0.0094
     14 C13        12.3252   -5.8224   -0.3188 C.ar    1  NONAME1     0.1588
     15 C14        13.4672   -5.0276   -0.3523 C.ar    1  NONAME1     0.1582
     16 C15        13.3907   -3.6799   -0.0297 C.ar    1  NONAME1    -0.0160
     17 O2          3.2087    0.2119   -0.8964 O.3     1  NONAME1    -0.3772
     18 O3          1.4951   -4.1919   -0.2326 O.3     1  NONAME1    -0.3890
     19 O4          3.9246   -4.0842   -1.4705 O.3     1  NONAME1    -0.3856
     20 O5          7.2813   -2.0799    1.5785 O.2     1  NONAME1    -0.2456
     21 O6         14.6468   -5.6222   -0.7041 O.3     1  NONAME1    -0.5033
     22 O7         12.4116   -7.1507   -0.6266 O.3     1  NONAME1    -0.5033
     23 C16         3.3379   -0.4269    1.4284 C.2     1  NONAME1     0.3370
     24 O8          3.7909    0.8415    1.5593 O.3     1  NONAME1    -0.4786
     25 O9          2.9810   -1.0654    2.4041 O.2     1  NONAME1    -0.2478
     26 H1          4.9155   -2.7658    1.4692 H       1  NONAME1     0.0762
     27 H2          5.5656   -0.8173    0.0080 H       1  NONAME1     0.0335
     28 H3          4.9370   -1.6172   -1.3917 H       1  NONAME1     0.0335
     29 H4          2.1295   -2.0018   -1.4093 H       1  NONAME1     0.0324
     30 H5          1.3036   -1.4998    0.0279 H       1  NONAME1     0.0324
     31 H6          2.3551   -3.2649    1.3783 H       1  NONAME1     0.0621
     32 H7          4.0185   -4.8339    0.4166 H       1  NONAME1     0.0656
     33 H8          8.4013   -4.3734   -0.5398 H       1  NONAME1     0.0689
     34 H9          9.7972   -2.5343    1.5195 H       1  NONAME1     0.0626
     35 H10        12.0964   -2.0773    0.5793 H       1  NONAME1     0.0625
     36 H11        10.2268   -5.9444    0.0646 H       1  NONAME1     0.0661
     37 H12        14.2682   -3.0419   -0.0440 H       1  NONAME1     0.0655
     38 H13         3.7574    0.9328   -0.5271 H       1  NONAME1     0.2109
     39 H14         0.6212   -3.8439    0.0217 H       1  NONAME1     0.2099
     40 H15         3.0896   -4.5502   -1.6809 H       1  NONAME1     0.2100
     41 H16        15.3450   -4.9453   -0.6832 H       1  NONAME1     0.2923
     42 H17        13.3571   -7.2934   -0.8323 H       1  NONAME1     0.2923
     43 H18         3.7392    1.0210    2.5230 H       1  NONAME1     0.2951
@<TRIPOS>BOND
     1     1     2    1
     2     2     3    1
     3     3     4    1
     4     4     5    1
     5     5     6    1
     6     1     6    1
     7     7     8    1
     8     8     9    1
     9     9    10    2
    10    10    11    1
    11     1     7    1
    12    13    14   ar
    13    14    15   ar
    14    15    16   ar
    15    12    16   ar
    16    12    11   ar
    17    11    13   ar
    18     3    17    1
    19     5    18    1
    20     6    19    1
    21     8    20    2
    22    15    21    1
    23    14    22    1
    24     3    23    1
    25    23    24    1
    26    23    25    2
    27     1    26    1
    28     2    27    1
    29     2    28    1
    30     4    29    1
    31     4    30    1
    32     5    31    1
    33     6    32    1
    34     9    33    1
    35    10    34    1
    36    12    35    1
    37    13    36    1
    38    16    37    1
    39    17    38    1
    40    18    39    1
    41    19    40    1
    42    21    41    1
    43    22    42    1
    44    24    43    1
