@<TRIPOS>MOLECULE
*****
 28 29 0 0 0
SMALL
USER_CHARGES

@<TRIPOS>ATOM
      1 C           5.1954    2.1394    0.1446 C.2     1  NONAME1     0.0089
      2 C           4.1446    3.1608    0.4308 C.3     1  NONAME1    -0.0200
      3 C           2.6939    2.6429    0.2393 C.3     1  NONAME1    -0.0303
      4 C           2.5414    1.1927   -0.1620 C.2     1  NONAME1    -0.0829
      5 C           3.5893    0.3800   -0.3741 C.2     1  NONAME1    -0.0513
      6 C           4.9132    0.8921   -0.2175 C.2     1  NONAME1     0.0658
      7 C           6.6114    2.2901    0.2009 C.2     1  NONAME1     0.1320
      8 C           6.1988    0.2101   -0.4021 C.2     1  NONAME1     0.3448
      9 O           7.2253    1.0864   -0.1414 O.3     1  NONAME1    -0.4224
     10 C           7.3001    3.3928    0.5227 C.2     1  NONAME1    -0.0412
     11 C           8.7998    3.4853    0.5683 C.3     1  NONAME1    -0.0313
     12 C           9.3230    4.4744   -0.4736 C.3     1  NONAME1    -0.0523
     13 C          10.8387    4.5867   -0.4217 C.3     1  NONAME1    -0.0650
     14 O           6.3360   -0.9559   -0.7359 O.2     1  NONAME1    -0.2445
     15 H           4.2558    3.5173    1.4626 H       1  NONAME1     0.0317
     16 H           4.2932    4.0326   -0.2185 H       1  NONAME1     0.0317
     17 H           2.1387    2.8020    1.1721 H       1  NONAME1     0.0311
     18 H           2.1978    3.2608   -0.5196 H       1  NONAME1     0.0311
     19 H           1.5310    0.8100   -0.2814 H       1  NONAME1     0.0572
     20 H           3.4620   -0.6589   -0.6636 H       1  NONAME1     0.0623
     21 H           6.7652    4.3031    0.7834 H       1  NONAME1     0.0608
     22 H           9.0941    3.8135    1.5725 H       1  NONAME1     0.0308
     23 H           9.2643    2.5050    0.4105 H       1  NONAME1     0.0308
     24 H           9.0216    4.1551   -1.4787 H       1  NONAME1     0.0266
     25 H           8.8850    5.4659   -0.3061 H       1  NONAME1     0.0266
     26 H          11.3109    3.6196   -0.6221 H       1  NONAME1     0.0230
     27 H          11.1727    4.9357    0.5607 H       1  NONAME1     0.0230
     28 H          11.1919    5.2994   -1.1736 H       1  NONAME1     0.0230
@<TRIPOS>BOND
     1     1     2    1
     2     2     3    1
     3     3     4    1
     4     4     5    2
     5     5     6    1
     6     1     6    2
     7     8     9    1
     8     7     9    1
     9     7     1    1
    10     6     8    1
    11     7    10    2
    12    10    11    1
    13    11    12    1
    14    12    13    1
    15     8    14    2
    16     2    15    1
    17     2    16    1
    18     3    17    1
    19     3    18    1
    20     4    19    1
    21     5    20    1
    22    10    21    1
    23    11    22    1
    24    11    23    1
    25    12    24    1
    26    12    25    1
    27    13    26    1
    28    13    27    1
    29    13    28    1
