@<TRIPOS>MOLECULE
*****
 26 27 0 0 0
SMALL
USER_CHARGES

@<TRIPOS>ATOM
      1 C           5.1997    2.1525   -0.2037 C.ar    1  NONAME1     0.0310
      2 C           4.1533    3.0144   -0.4860 C.ar    1  NONAME1    -0.0503
      3 C           2.8442    2.5388   -0.3400 C.ar    1  NONAME1    -0.0610
      4 C           2.6008    1.2204    0.0823 C.ar    1  NONAME1    -0.0609
      5 C           3.6650    0.3630    0.3637 C.ar    1  NONAME1    -0.0471
      6 C           4.9480    0.8636    0.2098 C.ar    1  NONAME1     0.0700
      7 C           6.6355    2.2781   -0.2368 C.2     1  NONAME1     0.1360
      8 C           6.2183    0.1838    0.4363 C.2     1  NONAME1     0.3451
      9 O           7.2303    1.0722    0.1571 O.3     1  NONAME1    -0.4220
     10 C           7.3411    3.3631   -0.5838 C.2     1  NONAME1    -0.0409
     11 C           8.8425    3.4371   -0.6063 C.3     1  NONAME1    -0.0313
     12 C           9.3585    4.4770    0.3888 C.3     1  NONAME1    -0.0523
     13 C          10.8762    4.5694    0.3595 C.3     1  NONAME1    -0.0650
     14 O           6.3491   -0.9680    0.8077 O.2     1  NONAME1    -0.2445
     15 H           4.3315    4.0337   -0.8124 H       1  NONAME1     0.0625
     16 H           2.0043    3.1966   -0.5556 H       1  NONAME1     0.0618
     17 H           1.5771    0.8680    0.1900 H       1  NONAME1     0.0618
     18 H           3.4995   -0.6585    0.6912 H       1  NONAME1     0.0626
     19 H           6.8221    4.2697   -0.8851 H       1  NONAME1     0.0609
     20 H           9.2928    2.4623   -0.3854 H       1  NONAME1     0.0308
     21 H           9.1587    3.7064   -1.6213 H       1  NONAME1     0.0308
     22 H           9.0346    4.2182    1.4043 H       1  NONAME1     0.0266
     23 H           8.9359    5.4624    0.1576 H       1  NONAME1     0.0266
     24 H          11.3327    3.6106    0.6250 H       1  NONAME1     0.0230
     25 H          11.2326    4.8567   -0.6348 H       1  NONAME1     0.0230
     26 H          11.2240    5.3209    1.0753 H       1  NONAME1     0.0230
@<TRIPOS>BOND
     1     1     2   ar
     2     2     3   ar
     3     3     4   ar
     4     4     5   ar
     5     5     6   ar
     6     1     6   ar
     7     8     9    1
     8     7     9    1
     9     7     1    1
    10     6     8    1
    11     7    10    2
    12    10    11    1
    13    11    12    1
    14    12    13    1
    15     8    14    2
    16     2    15    1
    17     3    16    1
    18     4    17    1
    19     5    18    1
    20    10    19    1
    21    11    20    1
    22    11    21    1
    23    12    22    1
    24    12    23    1
    25    13    24    1
    26    13    25    1
    27    13    26    1
