@<TRIPOS>MOLECULE
*****
 26 27 0 0 0
SMALL
USER_CHARGES

@<TRIPOS>ATOM
      1 C1        -10.2791    4.4428    0.0274 C.ar    1  NONAME1    -0.0503
      2 C2        -11.4796    3.7220    0.0057 C.ar    1  NONAME1    -0.0610
      3 C3        -11.4744    2.3166   -0.0216 C.ar    1  NONAME1    -0.0609
      4 C4        -10.2675    1.6166   -0.0311 C.ar    1  NONAME1    -0.0471
      5 C5         -9.0972    2.3585   -0.0119 C.ar    1  NONAME1     0.0700
      6 C6         -9.0890    3.7351    0.0203 C.ar    1  NONAME1     0.0310
      7 C7         -7.6991    4.1157    0.0395 C.2     1  NONAME1     0.1360
      8 C8         -7.7201    1.8780   -0.0227 C.2     1  NONAME1     0.3451
      9 O1         -6.8883    2.9731   -0.0040 O.3     1  NONAME1    -0.4220
     10 C9         -7.2006    5.3568    0.1245 C.2     1  NONAME1    -0.0409
     11 C10        -5.7262    5.6534    0.1566 C.3     1  NONAME1    -0.0313
     12 C11        -5.4339    7.1302   -0.1197 C.3     1  NONAME1    -0.0523
     13 C12        -3.9400    7.4145   -0.0970 C.3     1  NONAME1    -0.0650
     14 O2         -7.3775    0.7101   -0.0467 O.2     1  NONAME1    -0.2445
     15 H1        -10.2926    5.5276    0.0481 H       1  NONAME1     0.0625
     16 H2        -12.4287    4.2548    0.0101 H       1  NONAME1     0.0618
     17 H3        -12.4168    1.7731   -0.0366 H       1  NONAME1     0.0618
     18 H4        -10.2407    0.5317   -0.0532 H       1  NONAME1     0.0626
     19 H5         -7.8778    6.2042    0.1906 H       1  NONAME1     0.0609
     20 H6         -5.3336    5.3889    1.1457 H       1  NONAME1     0.0308
     21 H7         -5.2055    5.0385   -0.5879 H       1  NONAME1     0.0308
     22 H8         -5.8417    7.4211   -1.0952 H       1  NONAME1     0.0266
     23 H9         -5.9264    7.7557    0.6351 H       1  NONAME1     0.0266
     24 H10        -3.4200    6.8403   -0.8703 H       1  NONAME1     0.0230
     25 H11        -3.5057    7.1557    0.8741 H       1  NONAME1     0.0230
     26 H12        -3.7535    8.4774   -0.2797 H       1  NONAME1     0.0230
@<TRIPOS>BOND
     1     1     2   ar
     2     2     3   ar
     3     3     4   ar
     4     4     5   ar
     5     1     6   ar
     6     8     9    1
     7     7     9    1
     8     7     6    1
     9     5     8    1
    10     7    10    2
    11    10    11    1
    12    11    12    1
    13    12    13    1
    14     8    14    2
    15     5     6   ar
    16     1    15    1
    17     2    16    1
    18     3    17    1
    19     4    18    1
    20    10    19    1
    21    11    20    1
    22    11    21    1
    23    12    22    1
    24    12    23    1
    25    13    24    1
    26    13    25    1
    27    13    26    1
