@<TRIPOS>MOLECULE
*****
 64 68 0 0 0
SMALL
USER_CHARGES

@<TRIPOS>ATOM
      1 C1        -13.1072    5.4115   -1.4907 C.3     1  NONAME1    -0.0234
      2 C2        -13.0837    4.9784    0.0000 C.3     1  NONAME1    -0.0453
      3 C3        -13.0837    3.4383    0.0000 C.3     1  NONAME1    -0.0299
      4 C4        -11.9476    2.4980   -1.0491 C.3     1  NONAME1     0.0076
      5 C5        -11.8592    3.3151   -2.3152 C.2     1  NONAME1     0.0479
      6 C6        -12.2915    4.5774   -2.4703 C.2     1  NONAME1     0.0050
      7 C7        -11.6331    5.1088   -3.6332 C.2     1  NONAME1     0.1317
      8 C8        -10.9314    3.0402   -3.4117 C.2     1  NONAME1     0.3411
      9 O1        -10.8408    4.1291   -4.2293 O.3     1  NONAME1    -0.4226
     10 O2        -10.3048    2.0014   -3.5416 O.2     1  NONAME1    -0.2449
     11 C9        -11.6036    6.3824   -4.0500 C.2     1  NONAME1    -0.0412
     12 C10       -10.6892    6.8923   -5.1319 C.3     1  NONAME1    -0.0310
     13 C11       -13.0837    1.8983    0.0000 C.3     1  NONAME1    -0.0368
     14 C12       -13.9178    1.2623   -1.3041 C.3     1  NONAME1    -0.0490
     15 C13       -12.9151    0.3820   -2.0979 C.3     1  NONAME1    -0.0389
     16 C14       -10.5833    1.2083    0.0000 C.3     1  NONAME1    -0.0360
     17 C15       -10.5833   -0.3317    0.0000 C.3     1  NONAME1     0.0701
     18 C16       -11.9042    0.4177   -0.9902 C.3     1  NONAME1     0.0486
     19 C17       -12.6920   -1.1736   -0.4620 C.2     1  NONAME1     0.1124
     20 O3        -11.7297   -2.2412   -0.6087 O.3     1  NONAME1    -0.4298
     21 C18       -10.5833   -1.8717    0.0000 C.2     1  NONAME1     0.3161
     22 O4         -9.7088   -2.6092    0.4188 O.2     1  NONAME1    -0.2501
     23 C19       -13.9293   -1.7208   -0.1373 C.2     1  NONAME1    -0.0452
     24 C20       -14.2305   -3.3515    0.0818 C.3     1  NONAME1    -0.0313
     25 C21        -9.4519    7.5377   -4.4968 C.3     1  NONAME1    -0.0497
     26 C22        -8.4548    8.0279   -5.5449 C.3     1  NONAME1    -0.0556
     27 C23        -7.2152    8.6204   -4.8902 C.3     1  NONAME1    -0.0653
     28 C24       -15.6734   -4.1381   -0.1606 C.3     1  NONAME1    -0.0498
     29 C25       -15.7152   -5.8095    0.0000 C.3     1  NONAME1    -0.0556
     30 C26       -17.0489   -6.5795    0.0000 C.3     1  NONAME1    -0.0653
     31 H1        -12.7866    6.4589   -1.5136 H       1  NONAME1     0.0315
     32 H2        -14.1477    5.3983   -1.8406 H       1  NONAME1     0.0315
     33 H3        -13.9509    5.3791    0.5334 H       1  NONAME1     0.0271
     34 H4        -12.1674    5.3662    0.4625 H       1  NONAME1     0.0271
     35 H5        -12.6553    3.4206    1.0221 H       1  NONAME1     0.0310
     36 H6        -11.0490    2.9788   -0.5981 H       1  NONAME1     0.0364
     37 H7        -12.1913    7.1432   -3.5447 H       1  NONAME1     0.0608
     38 H8        -10.3857    6.0846   -5.8078 H       1  NONAME1     0.0309
     39 H9        -11.2307    7.6253   -5.7408 H       1  NONAME1     0.0309
     40 H10       -13.3617    1.4134    0.9511 H       1  NONAME1     0.0304
     41 H11       -14.3332    2.0583   -1.9358 H       1  NONAME1     0.0268
     42 H12       -14.7878    0.7195   -0.9313 H       1  NONAME1     0.0268
     43 H13       -12.5577    0.8807   -3.0001 H       1  NONAME1     0.0275
     44 H14       -13.3711   -0.5413   -2.4712 H       1  NONAME1     0.0275
     45 H15       -10.3487    1.6342    0.9863 H       1  NONAME1     0.0276
     46 H16        -9.9881    1.6425   -0.8295 H       1  NONAME1     0.0276
     47 H17        -9.6985   -0.3572   -0.6725 H       1  NONAME1     0.0423
     48 H18       -14.8148   -1.1099   -0.0130 H       1  NONAME1     0.0605
     49 H19       -13.9688   -3.5428    1.1306 H       1  NONAME1     0.0308
     50 H20       -13.5076   -3.8923   -0.5406 H       1  NONAME1     0.0308
     51 H21        -9.7575    8.3793   -3.8617 H       1  NONAME1     0.0268
     52 H22        -8.9539    6.8114   -3.8406 H       1  NONAME1     0.0268
     53 H23        -8.1542    7.1960   -6.1921 H       1  NONAME1     0.0263
     54 H24        -8.9253    8.7852   -6.1820 H       1  NONAME1     0.0263
     55 H25        -6.5108    8.9675   -5.6524 H       1  NONAME1     0.0230
     56 H26        -7.4756    9.4726   -4.2541 H       1  NONAME1     0.0230
     57 H27        -6.7044    7.8753   -4.2712 H       1  NONAME1     0.0230
     58 H28       -16.3954   -3.7220    0.5512 H       1  NONAME1     0.0268
     59 H29       -16.0181   -3.8982   -1.1727 H       1  NONAME1     0.0268
     60 H30       -15.0567   -6.1958   -0.7893 H       1  NONAME1     0.0263
     61 H31       -15.2220   -6.0010    0.9616 H       1  NONAME1     0.0263
     62 H32       -17.3033   -6.3267   -1.0492 H       1  NONAME1     0.0230
     63 H33       -18.3826   -7.3495    0.0000 H       1  NONAME1     0.0230
     64 H34       -16.5811   -7.5850    0.0269 H       1  NONAME1     0.0230
@<TRIPOS>BOND
     1     1     2    1
     2     2     3    1
     3     3     4    1
     4     4     5    1
     5     5     6    2
     6     1     6    1
     7     8     9    1
     8     7     9    1
     9     7     6    1
    10     5     8    1
    11     8    10    2
    12     7    11    2
    13    11    12    1
    14     3    13    1
    15    13    14    1
    16    14    15    1
    17    16    17    1
    18    13    16    1
    19    17    18    1
    20    15    18    1
    21     4    18    1
    22    18    19    1
    23    19    20    1
    24    17    21    1
    25    20    21    1
    26    21    22    2
    27    19    23    2
    28    23    24    1
    29    12    25    1
    30    25    26    1
    31    26    27    1
    32    24    28    1
    33    28    29    1
    34    29    30    1
    35     1    31    1
    36     1    32    1
    37     2    33    1
    38     2    34    1
    39     3    35    1
    40     4    36    1
    41    11    37    1
    42    12    38    1
    43    12    39    1
    44    13    40    1
    45    14    41    1
    46    14    42    1
    47    15    43    1
    48    15    44    1
    49    16    45    1
    50    16    46    1
    51    17    47    1
    52    23    48    1
    53    24    49    1
    54    24    50    1
    55    25    51    1
    56    25    52    1
    57    26    53    1
    58    26    54    1
    59    27    55    1
    60    27    56    1
    61    27    57    1
    62    28    58    1
    63    28    59    1
    64    29    60    1
    65    29    61    1
    66    30    62    1
    67    30    63    1
    68    30    64    1
