@<TRIPOS>MOLECULE
*****
 28 29 0 0 0
SMALL
USER_CHARGES

@<TRIPOS>ATOM
      1 C1        -10.7305    1.5446    0.1194 C.2     1  NONAME1     0.0658
      2 C2        -10.8194    2.8727    0.1030 C.2     1  NONAME1     0.0089
      3 C3         -9.5087    3.4190    0.2650 C.2     1  NONAME1     0.1320
      4 C4         -9.3163    1.2137    0.3182 C.2     1  NONAME1     0.3448
      5 O1         -8.5914    2.3727    0.4323 O.3     1  NONAME1    -0.4224
      6 O2         -8.8570    0.0856    0.3791 O.2     1  NONAME1    -0.2445
      7 C5         -9.0672    4.6839    0.2390 C.2     1  NONAME1    -0.0412
      8 C6        -12.1262    3.5783   -0.0647 C.3     1  NONAME1    -0.0200
      9 C7        -13.3595    2.6381   -0.1372 C.3     1  NONAME1    -0.0303
     10 C8        -13.0739    1.1556   -0.1649 C.2     1  NONAME1    -0.0829
     11 C9        -11.8358    0.6540   -0.0407 C.2     1  NONAME1    -0.0513
     12 C10        -9.8656    5.9339    0.0035 C.3     1  NONAME1    -0.0313
     13 C11        -9.1327    7.2326    0.3660 C.3     1  NONAME1    -0.0523
     14 C12        -7.8931    7.5000   -0.4775 C.3     1  NONAME1    -0.0650
     15 H1         -7.9946    4.8157    0.3721 H       1  NONAME1     0.0608
     16 H2        -12.0967    4.1851   -0.9779 H       1  NONAME1     0.0317
     17 H3        -12.2830    4.2679    0.7730 H       1  NONAME1     0.0317
     18 H4        -14.0070    2.8403    0.7257 H       1  NONAME1     0.0311
     19 H5        -13.9474    2.8974   -1.0261 H       1  NONAME1     0.0311
     20 H6        -13.9193    0.4826   -0.2823 H       1  NONAME1     0.0572
     21 H7        -11.6454   -0.4152   -0.0586 H       1  NONAME1     0.0623
     22 H8        -10.7805    5.9075    0.6031 H       1  NONAME1     0.0308
     23 H9        -10.1569    5.9760   -1.0529 H       1  NONAME1     0.0308
     24 H10        -9.8302    8.0674    0.2241 H       1  NONAME1     0.0266
     25 H11        -8.8575    7.2275    1.4273 H       1  NONAME1     0.0266
     26 H12        -8.1136    7.4129   -1.5458 H       1  NONAME1     0.0230
     27 H13        -7.0835    6.8058   -0.2337 H       1  NONAME1     0.0230
     28 H14        -7.5229    8.5128   -0.2886 H       1  NONAME1     0.0230
@<TRIPOS>BOND
     1     1     2    2
     2     4     5    1
     3     3     5    1
     4     3     2    1
     5     1     4    1
     6     4     6    2
     7     3     7    2
     8     9    10    1
     9    10    11    2
    10    11     1    1
    11     8     2    1
    12     8     9    1
    13     7    12    1
    14    12    13    1
    15    13    14    1
    16     7    15    1
    17     8    16    1
    18     8    17    1
    19     9    18    1
    20     9    19    1
    21    10    20    1
    22    11    21    1
    23    12    22    1
    24    12    23    1
    25    13    24    1
    26    13    25    1
    27    14    26    1
    28    14    27    1
    29    14    28    1
