@<TRIPOS>MOLECULE
*****
 28 29 0 0 0
SMALL
USER_CHARGES

@<TRIPOS>ATOM
      1 C1        -10.5680    1.5240   -0.0287 C.ar    1  NONAME1     0.0657
      2 C2        -10.6435    2.8502    0.3485 C.ar    1  NONAME1     0.0067
      3 C3         -9.2843    3.3310    0.6945 C.3     1  NONAME1     0.1291
      4 C4         -9.1742    1.1035   -0.0045 C.2     1  NONAME1     0.3401
      5 O1         -8.4461    2.1946    0.3776 O.3     1  NONAME1    -0.4531
      6 O2         -8.7431    0.0033   -0.2805 O.2     1  NONAME1    -0.2449
      7 C5         -8.8312    4.5681   -0.0824 C.3     1  NONAME1    -0.0114
      8 C6         -7.3511    4.8818    0.1628 C.3     1  NONAME1    -0.0496
      9 C7         -6.9797    6.2798   -0.3306 C.3     1  NONAME1    -0.0558
     10 C8         -5.4894    6.5425   -0.1788 C.3     1  NONAME1    -0.0653
     11 C9        -11.8686    3.4956    0.3850 C.ar    1  NONAME1    -0.0543
     12 C10       -13.0125    2.7684    0.0350 C.ar    1  NONAME1    -0.0613
     13 C11       -12.9210    1.4161   -0.3374 C.ar    1  NONAME1    -0.0610
     14 C12       -11.6815    0.7777   -0.3734 C.ar    1  NONAME1    -0.0474
     15 H1         -9.2074    3.5036    1.7744 H       1  NONAME1     0.0785
     16 H2         -8.9775    4.4158   -1.1599 H       1  NONAME1     0.0304
     17 H3         -9.4522    5.4253    0.2061 H       1  NONAME1     0.0304
     18 H4         -7.1264    4.8083    1.2338 H       1  NONAME1     0.0266
     19 H5         -6.7324    4.1343   -0.3488 H       1  NONAME1     0.0266
     20 H6         -7.2631    6.3991   -1.3824 H       1  NONAME1     0.0263
     21 H7         -7.5358    7.0304    0.2435 H       1  NONAME1     0.0263
     22 H8         -4.9077    5.8615   -0.8084 H       1  NONAME1     0.0230
     23 H9         -5.1685    6.4082    0.8592 H       1  NONAME1     0.0230
     24 H10        -5.2516    7.5679   -0.4784 H       1  NONAME1     0.0230
     25 H11       -11.9510    4.5376    0.6795 H       1  NONAME1     0.0622
     26 H12       -13.9871    3.2525    0.0547 H       1  NONAME1     0.0618
     27 H13       -13.8218    0.8655   -0.5998 H       1  NONAME1     0.0618
     28 H14       -11.5878   -0.2649   -0.6604 H       1  NONAME1     0.0626
@<TRIPOS>BOND
     1     1     2   ar
     2     4     5    1
     3     3     5    1
     4     3     2    1
     5     1     4    1
     6     4     6    2
     7     3     7    1
     8     7     8    1
     9     8     9    1
    10     9    10    1
    11    11    12   ar
    12    12    13   ar
    13    13    14   ar
    14    14     1   ar
    15    11     2   ar
    16     3    15    1
    17     7    16    1
    18     7    17    1
    19     8    18    1
    20     8    19    1
    21     9    20    1
    22     9    21    1
    23    10    22    1
    24    10    23    1
    25    10    24    1
    26    11    25    1
    27    12    26    1
    28    13    27    1
    29    14    28    1
