@<TRIPOS>MOLECULE
*****
 56 60 0 0 0
SMALL
USER_CHARGES

@<TRIPOS>ATOM
      1 C1         -5.2439    6.2553   -0.5010 C.3     1  NONAME1    -0.0234
      2 C2         -6.3935    5.3476   -1.0454 C.3     1  NONAME1    -0.0450
      3 C3         -6.3810    4.0505   -0.2477 C.3     1  NONAME1    -0.0229
      4 C4         -5.0134    3.3511   -0.5763 C.3     1  NONAME1     0.0387
      5 C5         -3.9350    4.1581   -0.0392 C.2     1  NONAME1     0.0511
      6 C6         -4.0183    5.4887   -0.0597 C.2     1  NONAME1     0.0051
      7 C7         -2.5934    3.8013    0.3825 C.2     1  NONAME1     0.3412
      8 O1         -1.8923    4.9483    0.6565 O.3     1  NONAME1    -0.4226
      9 C8         -2.7623    6.0064    0.3864 C.2     1  NONAME1     0.1317
     10 C9         -7.0000    2.6372   -0.5193 C.3     1  NONAME1     0.0071
     11 C10        -5.6194    2.0962    0.0877 C.3     1  NONAME1     0.1461
     12 O2         -5.5508    2.0318    1.5358 O.3     1  NONAME1    -0.4492
     13 C11        -5.1095    0.7894    1.8992 C.2     1  NONAME1     0.3401
     14 C12        -4.8643    0.0247    0.6596 C.2     1  NONAME1     0.0617
     15 C13        -5.1698    0.7851   -0.3942 C.2     1  NONAME1    -0.0115
     16 C14        -2.4309    7.2982    0.5223 C.2     1  NONAME1    -0.0412
     17 C15        -1.1168    7.9121    0.9341 C.3     1  NONAME1    -0.0313
     18 O3         -2.1658    2.6617    0.4449 O.2     1  NONAME1    -0.2449
     19 O4         -4.9778    0.3865    3.0401 O.2     1  NONAME1    -0.2449
     20 C16        -8.2786    2.2732    0.2252 C.3     1  NONAME1    -0.0462
     21 C17        -4.4049   -1.3252    0.5441 C.2     1  NONAME1    -0.0516
     22 C18        -4.1584   -1.8412   -0.6708 C.2     1  NONAME1    -0.0829
     23 C19        -4.3409   -1.0516   -1.9466 C.3     1  NONAME1    -0.0306
     24 C20        -5.0519    0.3195   -1.8045 C.3     1  NONAME1    -0.0235
     25 C21         0.1081    6.9992    1.0252 C.3     1  NONAME1    -0.0523
     26 C22         1.3719    7.7940    1.3227 C.3     1  NONAME1    -0.0650
     27 C23        -9.4713    3.0133   -0.3794 C.3     1  NONAME1    -0.0555
     28 C24       -10.7742    2.6224    0.2984 C.3     1  NONAME1    -0.0653
     29 H1         -4.9836    6.9922   -1.2691 H       1  NONAME1     0.0315
     30 H2         -5.6265    6.8094    0.3659 H       1  NONAME1     0.0315
     31 H3         -6.2379    5.1519   -2.1132 H       1  NONAME1     0.0271
     32 H4         -7.3547    5.8626   -0.9451 H       1  NONAME1     0.0271
     33 H5         -6.5219    4.3188    0.8149 H       1  NONAME1     0.0312
     34 H6         -4.8492    3.2143   -1.6577 H       1  NONAME1     0.0396
     35 H7         -7.1124    2.4234   -1.5937 H       1  NONAME1     0.0346
     36 H8         -3.1929    8.0448    0.3017 H       1  NONAME1     0.0608
     37 H9         -1.2669    8.4099    1.9002 H       1  NONAME1     0.0308
     38 H10        -0.8976    8.7068    0.2088 H       1  NONAME1     0.0308
     39 H11        -8.4431    1.1915    0.1534 H       1  NONAME1     0.0269
     40 H12        -8.1936    2.5165    1.2907 H       1  NONAME1     0.0269
     41 H13        -4.2502   -1.9000    1.4528 H       1  NONAME1     0.0623
     42 H14        -3.7884   -2.8593   -0.7581 H       1  NONAME1     0.0572
     43 H15        -4.8992   -1.6636   -2.6653 H       1  NONAME1     0.0310
     44 H16        -3.3479   -0.8914   -2.3856 H       1  NONAME1     0.0310
     45 H17        -6.0577    0.2403   -2.2349 H       1  NONAME1     0.0315
     46 H18        -4.5094    1.0554   -2.4080 H       1  NONAME1     0.0315
     47 H19        -0.0307    6.2574    1.8198 H       1  NONAME1     0.0266
     48 H20         0.2488    6.4589    0.0817 H       1  NONAME1     0.0266
     49 H21         2.2349    7.1235    1.3835 H       1  NONAME1     0.0230
     50 H22         1.5685    8.5279    0.5345 H       1  NONAME1     0.0230
     51 H23         1.2861    8.3261    2.2753 H       1  NONAME1     0.0230
     52 H24        -9.3266    4.0958   -0.2869 H       1  NONAME1     0.0263
     53 H25        -9.5433    2.7943   -1.4514 H       1  NONAME1     0.0263
     54 H26       -11.6121    3.1658   -0.1495 H       1  NONAME1     0.0230
     55 H27       -10.7475    2.8592    1.3667 H       1  NONAME1     0.0230
     56 H28       -10.9674    1.5505    0.1880 H       1  NONAME1     0.0230
@<TRIPOS>BOND
     1     1     2    1
     2     2     3    1
     3     3     4    1
     4     4     5    1
     5     1     6    1
     6     7     8    1
     7     8     9    1
     8     5     7    1
     9     6     9    1
    10    10    11    1
    11     3    10    1
    12     4    11    1
    13    12    13    1
    14    13    14    1
    15    11    12    1
    16    11    15    1
    17     9    16    2
    18    16    17    1
    19     7    18    2
    20    13    19    2
    21    10    20    1
    22    15    14    2
    23     6     5    2
    24    21    22    2
    25    22    23    1
    26    23    24    1
    27    15    24    1
    28    14    21    1
    29    17    25    1
    30    25    26    1
    31    20    27    1
    32    27    28    1
    33     1    29    1
    34     1    30    1
    35     2    31    1
    36     2    32    1
    37     3    33    1
    38     4    34    1
    39    10    35    1
    40    16    36    1
    41    17    37    1
    42    17    38    1
    43    20    39    1
    44    20    40    1
    45    21    41    1
    46    22    42    1
    47    23    43    1
    48    23    44    1
    49    24    45    1
    50    24    46    1
    51    25    47    1
    52    25    48    1
    53    26    49    1
    54    26    50    1
    55    26    51    1
    56    27    52    1
    57    27    53    1
    58    28    54    1
    59    28    55    1
    60    28    56    1
