@<TRIPOS>MOLECULE
*****
 29 30 0 0 0
SMALL
USER_CHARGES

@<TRIPOS>ATOM
      1 C1         -8.7224    6.3118    0.5759 C.3     1  NONAME1    -0.0200
      2 C2        -10.1406    5.7360    0.3181 C.3     1  NONAME1    -0.0303
      3 C3        -10.2182    4.4845   -0.5277 C.2     1  NONAME1    -0.0829
      4 C4         -9.1378    3.9058   -1.0762 C.2     1  NONAME1    -0.0513
      5 C5         -7.8499    4.4844   -0.8593 C.2     1  NONAME1     0.0658
      6 C6         -7.6306    5.5665   -0.1185 C.2     1  NONAME1     0.0090
      7 C7         -6.5412    4.0452   -1.3551 C.2     1  NONAME1     0.3448
      8 O1         -5.5654    4.8955   -0.8897 O.3     1  NONAME1    -0.4223
      9 C8         -6.2324    5.8422   -0.1140 C.2     1  NONAME1     0.1344
     10 C9         -5.5988    6.8302    0.5305 C.2     1  NONAME1    -0.0131
     11 C10        -4.1173    7.0550    0.5088 C.3     1  NONAME1     0.0767
     12 C11        -3.7658    8.4592    0.0000 C.3     1  NONAME1    -0.0260
     13 C12        -2.2390    8.6602    0.0000 C.3     1  NONAME1    -0.0626
     14 O2         -3.6584    6.9288    1.8518 O.3     1  NONAME1    -0.3877
     15 O3         -6.3452    3.0745   -2.0679 O.2     1  NONAME1    -0.2445
     16 H1         -8.5339    6.3073    1.6569 H       1  NONAME1     0.0317
     17 H2         -8.7089    7.3627    0.2608 H       1  NONAME1     0.0317
     18 H3        -10.7520    6.5100   -0.1626 H       1  NONAME1     0.0311
     19 H4        -10.6161    5.5290    1.2849 H       1  NONAME1     0.0311
     20 H5        -11.2017    4.0509   -0.6903 H       1  NONAME1     0.0572
     21 H6         -9.2120    3.0077   -1.6824 H       1  NONAME1     0.0623
     22 H7         -6.1684    7.5333    1.1339 H       1  NONAME1     0.0634
     23 H8         -3.5972    6.3031   -0.0951 H       1  NONAME1     0.0639
     24 H9         -4.1826    8.6297   -1.0005 H       1  NONAME1     0.0291
     25 H10        -4.1982    9.1985    0.6874 H       1  NONAME1     0.0291
     26 H11        -2.0479    7.9995   -0.8713 H       1  NONAME1     0.0231
     27 H12        -0.7122    8.8612    0.0000 H       1  NONAME1     0.0231
     28 H13        -2.2799    9.7091   -0.3598 H       1  NONAME1     0.0231
     29 H14        -3.7965    6.0003    2.1069 H       1  NONAME1     0.2102
@<TRIPOS>BOND
     1     1     2    1
     2     2     3    1
     3     3     4    2
     4     4     5    1
     5     5     6    2
     6     1     6    1
     7     7     8    1
     8     8     9    1
     9     5     7    1
    10     6     9    1
    11     9    10    2
    12    10    11    1
    13    11    12    1
    14    12    13    1
    15    11    14    1
    16     7    15    2
    17     1    16    1
    18     1    17    1
    19     2    18    1
    20     2    19    1
    21     3    20    1
    22     4    21    1
    23    10    22    1
    24    11    23    1
    25    12    24    1
    26    12    25    1
    27    13    26    1
    28    13    27    1
    29    13    28    1
    30    14    29    1
