@<TRIPOS>MOLECULE
*****
 32 33 0 0 0
SMALL
USER_CHARGES

@<TRIPOS>ATOM
      1 C1          0.4409   -1.2870    0.0011 C.3     1  NONAME1    -0.0212
      2 C2         -0.7891   -2.1382   -0.3845 C.3     1  NONAME1    -0.0200
      3 C3         -0.7399   -3.5006    0.3233 C.3     1  NONAME1     0.0857
      4 C4          0.4982   -4.3079   -0.1520 C.3     1  NONAME1     0.1130
      5 C5          1.7257   -3.4307   -0.1671 C.2     1  NONAME1     0.0743
      6 C6          1.7036   -2.1050   -0.0852 C.2     1  NONAME1     0.0073
      7 C7          3.1325   -3.8101   -0.2833 C.2     1  NONAME1     0.3434
      8 O1          3.9270   -2.7212   -0.2214 O.3     1  NONAME1    -0.4225
      9 C8          3.1037   -1.6538   -0.0917 C.2     1  NONAME1     0.1318
     10 C9          3.5245   -0.3853    0.0051 C.2     1  NONAME1    -0.0412
     11 C10         4.9907   -0.0463   -0.0197 C.3     1  NONAME1    -0.0313
     12 C11         5.2118    1.4648    0.1052 C.3     1  NONAME1    -0.0523
     13 C12         6.6984    1.8081    0.0784 C.3     1  NONAME1    -0.0650
     14 O2          3.5531   -4.9499   -0.3967 O.2     1  NONAME1    -0.2448
     15 O3          0.7056   -5.3901    0.7167 O.3     1  NONAME1    -0.3844
     16 O4         -1.9019   -4.2412    0.0582 O.3     1  NONAME1    -0.3889
     17 H1          0.4823   -0.4253   -0.6984 H       1  NONAME1     0.0315
     18 H2          0.3605   -0.9006    1.0395 H       1  NONAME1     0.0315
     19 H3         -0.7911   -2.3223   -1.4821 H       1  NONAME1     0.0294
     20 H4         -1.7113   -1.5749   -0.1253 H       1  NONAME1     0.0294
     21 H5         -0.6476   -3.3173    1.4211 H       1  NONAME1     0.0622
     22 H6          0.3775   -4.6751   -1.1978 H       1  NONAME1     0.0672
     23 H7          2.7902    0.4100    0.1033 H       1  NONAME1     0.0608
     24 H8          5.4280   -0.4049   -0.9773 H       1  NONAME1     0.0308
     25 H9          5.4959   -0.5642    0.8250 H       1  NONAME1     0.0308
     26 H10         4.7078    1.9865   -0.7377 H       1  NONAME1     0.0266
     27 H11         4.7766    1.8278    1.0621 H       1  NONAME1     0.0266
     28 H12         7.1544    1.4748   -0.8782 H       1  NONAME1     0.0230
     29 H13         7.2238    1.3159    0.9244 H       1  NONAME1     0.0230
     30 H14         6.8283    2.9071    0.1703 H       1  NONAME1     0.0230
     31 H15         0.0794   -6.1073    0.4358 H       1  NONAME1     0.2103
     32 H16        -2.6201   -3.8614    0.6288 H       1  NONAME1     0.2099
@<TRIPOS>BOND
     1     1     2    1
     2     2     3    1
     3     3     4    1
     4     4     5    1
     5     5     6    2
     6     1     6    1
     7     7     8    1
     8     8     9    1
     9     5     7    1
    10     6     9    1
    11     9    10    2
    12    10    11    1
    13    11    12    1
    14    12    13    1
    15     7    14    2
    16     4    15    1
    17     3    16    1
    18     1    17    1
    19     1    18    1
    20     2    19    1
    21     2    20    1
    22     3    21    1
    23     4    22    1
    24    10    23    1
    25    11    24    1
    26    11    25    1
    27    12    26    1
    28    12    27    1
    29    13    28    1
    30    13    29    1
    31    13    30    1
    32    15    31    1
    33    16    32    1
