@<TRIPOS>MOLECULE
*****
 56 60 0 0 0
SMALL
USER_CHARGES

@<TRIPOS>ATOM
      1 C1          0.5582    0.0366    0.6617 C.2     1  NONAME1    -0.0694
      2 C2          1.2413    0.3610   -0.6502 C.3     1  NONAME1    -0.0153
      3 C3          2.7833    0.0974   -0.5197 C.3     1  NONAME1     0.0105
      4 C4          0.7525   -1.2340    1.0368 C.2     1  NONAME1     0.0510
      5 C5          1.6037   -2.0982    0.1556 C.3     1  NONAME1     0.1035
      6 C6          3.0072   -1.3563    0.0818 C.3     1  NONAME1     0.1557
      7 C7          0.6997   -0.6363   -1.7083 C.3     1  NONAME1    -0.0450
      8 C8          0.8777   -2.0911   -1.2138 C.3     1  NONAME1    -0.0316
      9 C9          3.4647    1.2597    0.2383 C.3     1  NONAME1    -0.0459
     10 C10         0.3157   -2.0093    2.2012 C.2     1  NONAME1     0.3409
     11 O1          0.8019   -3.2891    2.0882 O.3     1  NONAME1    -0.4262
     12 C11         1.5303   -3.4034    0.8874 C.2     1  NONAME1     0.1200
     13 C12         2.0301   -4.5812    0.4818 C.2     1  NONAME1    -0.0447
     14 C13         1.9340   -5.8744    1.2420 C.3     1  NONAME1    -0.0316
     15 O2         -0.3869   -1.5885    3.1033 O.2     1  NONAME1    -0.2449
     16 O3          3.4971   -1.2479    1.4507 O.3     1  NONAME1    -0.4484
     17 C14         4.1238   -2.1112   -0.5756 C.2     1  NONAME1    -0.0108
     18 C15         5.0319   -2.5008    0.3202 C.2     1  NONAME1     0.0618
     19 C16         4.6257   -1.9873    1.6292 C.2     1  NONAME1     0.3401
     20 C17         4.3096   -2.3801   -2.0384 C.3     1  NONAME1    -0.0235
     21 C18         5.4501   -3.3793   -2.3655 C.3     1  NONAME1    -0.0306
     22 C19         6.4377   -3.6331   -1.2552 C.2     1  NONAME1    -0.0829
     23 C20         6.2291   -3.2134    0.0015 C.2     1  NONAME1    -0.0516
     24 O4          5.2158   -2.1444    2.6813 O.2     1  NONAME1    -0.2449
     25 C21         4.9839    1.2975    0.0541 C.3     1  NONAME1    -0.0555
     26 C22         5.5906    2.5300    0.7080 C.3     1  NONAME1    -0.0653
     27 C23         1.1622   -6.9245    0.4424 C.3     1  NONAME1    -0.0524
     28 C24         1.1123   -8.2559    1.1754 C.3     1  NONAME1    -0.0650
     29 H1         -0.0216    0.7540    1.2296 H       1  NONAME1     0.0580
     30 H2          1.0309    1.3889   -0.9626 H       1  NONAME1     0.0347
     31 H3          3.1721    0.1230   -1.5465 H       1  NONAME1     0.0349
     32 H4         -0.3633   -0.4434   -1.9008 H       1  NONAME1     0.0271
     33 H5          1.2198   -0.5014   -2.6641 H       1  NONAME1     0.0271
     34 H6         -0.1161   -2.5541   -1.1266 H       1  NONAME1     0.0280
     35 H7          1.4026   -2.6866   -1.9637 H       1  NONAME1     0.0280
     36 H8          3.0596    2.2067   -0.1425 H       1  NONAME1     0.0269
     37 H9          3.2139    1.2318    1.3052 H       1  NONAME1     0.0269
     38 H10         2.5671   -4.6376   -0.4623 H       1  NONAME1     0.0605
     39 H11         1.4573   -5.7312    2.2184 H       1  NONAME1     0.0308
     40 H12         2.9521   -6.2320    1.4380 H       1  NONAME1     0.0308
     41 H13         3.3937   -2.7663   -2.4886 H       1  NONAME1     0.0315
     42 H14         4.5293   -1.4313   -2.5427 H       1  NONAME1     0.0315
     43 H15         5.0072   -4.3437   -2.6454 H       1  NONAME1     0.0310
     44 H16         5.9901   -3.0195   -3.2495 H       1  NONAME1     0.0310
     45 H17         7.3386   -4.1913   -1.4959 H       1  NONAME1     0.0572
     46 H18         6.9442   -3.4085    0.7961 H       1  NONAME1     0.0623
     47 H19         5.2295    1.3036   -1.0141 H       1  NONAME1     0.0263
     48 H20         5.4522    0.4117    0.4883 H       1  NONAME1     0.0263
     49 H21         6.6762    2.5367    0.5687 H       1  NONAME1     0.0230
     50 H22         5.1870    3.4473    0.2674 H       1  NONAME1     0.0230
     51 H23         5.3854    2.5446    1.7831 H       1  NONAME1     0.0230
     52 H24         1.6321   -7.0746   -0.5374 H       1  NONAME1     0.0266
     53 H25         0.1385   -6.5768    0.2580 H       1  NONAME1     0.0266
     54 H26         0.5537   -8.9911    0.5878 H       1  NONAME1     0.0230
     55 H27         2.1203   -8.6494    1.3413 H       1  NONAME1     0.0230
     56 H28         0.6193   -8.1512    2.1470 H       1  NONAME1     0.0230
@<TRIPOS>BOND
     1     1     2    1
     2     2     3    1
     3     1     4    2
     4     4     5    1
     5     5     6    1
     6     3     6    1
     7     2     7    1
     8     5     8    1
     9     7     8    1
    10     3     9    1
    11     4    10    1
    12    10    11    1
    13     5    12    1
    14    12    11    1
    15    12    13    2
    16    13    14    1
    17    10    15    2
    18    17    18    2
    19    18    19    1
    20    16    19    1
    21    16     6    1
    22     6    17    1
    23    20    21    1
    24    21    22    1
    25    22    23    2
    26    17    20    1
    27    18    23    1
    28    19    24    2
    29     9    25    1
    30    25    26    1
    31    14    27    1
    32    27    28    1
    33     1    29    1
    34     2    30    1
    35     3    31    1
    36     7    32    1
    37     7    33    1
    38     8    34    1
    39     8    35    1
    40     9    36    1
    41     9    37    1
    42    13    38    1
    43    14    39    1
    44    14    40    1
    45    20    41    1
    46    20    42    1
    47    21    43    1
    48    21    44    1
    49    22    45    1
    50    23    46    1
    51    25    47    1
    52    25    48    1
    53    26    49    1
    54    26    50    1
    55    26    51    1
    56    27    52    1
    57    27    53    1
    58    28    54    1
    59    28    55    1
    60    28    56    1
