@<TRIPOS>MOLECULE
*****
 57 61 0 0 0
SMALL
USER_CHARGES

@<TRIPOS>ATOM
      1 C1         14.7421   -5.9129    0.6437 C.ar    1  NONAME1    -0.0474
      2 C2         13.8766   -6.8010    0.0276 C.ar    1  NONAME1     0.0660
      3 C3         13.2169   -7.8052    0.7099 C.ar    1  NONAME1     0.0113
      4 C4         13.4187   -7.9562    2.0747 C.ar    1  NONAME1    -0.0540
      5 C5         14.2872   -7.0729    2.7256 C.ar    1  NONAME1    -0.0613
      6 C6         14.9449   -6.0561    2.0153 C.ar    1  NONAME1    -0.0610
      7 O1         12.6623   -7.9173   -1.5133 O.3     1  NONAME1    -0.4481
      8 C7         12.3528   -8.5691   -0.2437 C.3     1  NONAME1     0.1593
      9 C8         13.5114   -6.8571   -1.3780 C.2     1  NONAME1     0.3405
     10 O2         13.8874   -6.1162   -2.2624 O.2     1  NONAME1    -0.2449
     11 C9         12.7558  -10.1099   -0.3096 C.3     1  NONAME1     0.0108
     12 C10        11.4317  -10.9507   -0.3556 C.3     1  NONAME1    -0.0152
     13 C11        10.7105  -10.6625    0.9522 C.2     1  NONAME1    -0.0694
     14 C12        10.4223   -9.3640    1.1011 C.2     1  NONAME1     0.0510
     15 C13        10.7968   -8.4405   -0.0093 C.3     1  NONAME1     0.1038
     16 C14        10.5172  -10.4589   -1.5073 C.3     1  NONAME1    -0.0450
     17 C15        10.0710   -8.9966   -1.2657 C.3     1  NONAME1    -0.0316
     18 C16         9.7884   -8.5960    2.1758 C.2     1  NONAME1     0.3409
     19 O3          9.7087   -7.2802    1.7934 O.3     1  NONAME1    -0.4262
     20 C17        10.2428   -7.1458    0.4956 C.2     1  NONAME1     0.1200
     21 O4          9.4215   -9.0554    3.2425 O.2     1  NONAME1    -0.2449
     22 C18        10.1655   -5.9846   -0.1723 C.2     1  NONAME1    -0.0447
     23 C19         9.5784   -4.7158    0.3792 C.3     1  NONAME1    -0.0313
     24 C20        13.7601  -10.4528   -1.4343 C.3     1  NONAME1    -0.0459
     25 C21        14.7111  -11.6192   -1.1274 C.3     1  NONAME1    -0.0555
     26 C22        14.0521  -12.9753   -0.9596 C.3     1  NONAME1    -0.0653
     27 C23         8.1968   -4.4426   -0.2170 C.3     1  NONAME1    -0.0498
     28 C24         7.5966   -3.1525    0.3420 C.3     1  NONAME1    -0.0556
     29 C25         6.2037   -2.9003   -0.2127 C.3     1  NONAME1    -0.0653
     30 H1         15.2427   -5.1350    0.0758 H       1  NONAME1     0.0626
     31 H2         12.9225   -8.7371    2.6444 H       1  NONAME1     0.0622
     32 H3         14.4546   -7.1730    3.7967 H       1  NONAME1     0.0618
     33 H4         15.6157   -5.3784    2.5390 H       1  NONAME1     0.0618
     34 H5         13.2503  -10.3701    0.6386 H       1  NONAME1     0.0349
     35 H6         11.6133  -12.0217   -0.4508 H       1  NONAME1     0.0347
     36 H7         10.4881  -11.4238    1.6902 H       1  NONAME1     0.0580
     37 H8         11.0261  -10.5378   -2.4736 H       1  NONAME1     0.0271
     38 H9          9.6272  -11.0976   -1.5759 H       1  NONAME1     0.0271
     39 H10        10.2772   -8.3909   -2.1564 H       1  NONAME1     0.0280
     40 H11         8.9802   -8.9710   -1.1330 H       1  NONAME1     0.0280
     41 H12        10.5473   -5.9235   -1.1903 H       1  NONAME1     0.0605
     42 H13         9.5095   -4.7575    1.4726 H       1  NONAME1     0.0308
     43 H14        10.2594   -3.8887    0.1446 H       1  NONAME1     0.0308
     44 H15        13.2427  -10.6414   -2.3804 H       1  NONAME1     0.0269
     45 H16        14.4170   -9.5925   -1.6080 H       1  NONAME1     0.0269
     46 H17        15.2960  -11.3895   -0.2285 H       1  NONAME1     0.0263
     47 H18        15.4305  -11.6901   -1.9528 H       1  NONAME1     0.0263
     48 H19        13.5060  -13.0360   -0.0143 H       1  NONAME1     0.0230
     49 H20        13.3670  -13.1901   -1.7853 H       1  NONAME1     0.0230
     50 H21        14.8143  -13.7613   -0.9404 H       1  NONAME1     0.0230
     51 H22         8.2687   -4.3706   -1.3097 H       1  NONAME1     0.0268
     52 H23         7.5267   -5.2831    0.0049 H       1  NONAME1     0.0268
     53 H24         7.5415   -3.2096    1.4354 H       1  NONAME1     0.0263
     54 H25         8.2436   -2.3033    0.0934 H       1  NONAME1     0.0263
     55 H26         5.7952   -1.9711    0.1967 H       1  NONAME1     0.0230
     56 H27         6.2252   -2.8112   -1.3034 H       1  NONAME1     0.0230
     57 H28         5.5230   -3.7157    0.0524 H       1  NONAME1     0.0230
@<TRIPOS>BOND
     1     1     2   ar
     2     2     3   ar
     3     3     4   ar
     4     4     5   ar
     5     5     6   ar
     6     1     6   ar
     7     7     8    1
     8     7     9    1
     9     8     3    1
    10     2     9    1
    11     9    10    2
    12     8    11    1
    13    11    12    1
    14    12    13    1
    15    13    14    2
    16    14    15    1
    17    15     8    1
    18    12    16    1
    19    16    17    1
    20    17    15    1
    21    14    18    1
    22    18    19    1
    23    19    20    1
    24    20    15    1
    25    18    21    2
    26    20    22    2
    27    22    23    1
    28    11    24    1
    29    24    25    1
    30    25    26    1
    31    23    27    1
    32    27    28    1
    33    28    29    1
    34     1    30    1
    35     4    31    1
    36     5    32    1
    37     6    33    1
    38    11    34    1
    39    12    35    1
    40    13    36    1
    41    16    37    1
    42    16    38    1
    43    17    39    1
    44    17    40    1
    45    22    41    1
    46    23    42    1
    47    23    43    1
    48    24    44    1
    49    24    45    1
    50    25    46    1
    51    25    47    1
    52    26    48    1
    53    26    49    1
    54    26    50    1
    55    27    51    1
    56    27    52    1
    57    28    53    1
    58    28    54    1
    59    29    55    1
    60    29    56    1
    61    29    57    1
