@<TRIPOS>MOLECULE
*****
 26 27 0 0 0
SMALL
USER_CHARGES

@<TRIPOS>ATOM
      1 C1         -3.3159    2.0497    0.0906 C.ar    1  NONAME1    -0.0124
      2 C2         -4.4773    1.3092    0.0624 C.ar    1  NONAME1     0.1702
      3 C3         -4.4618   -0.0592   -0.0515 C.ar    1  NONAME1     0.2075
      4 C4         -3.2763   -0.7663   -0.1485 C.ar    1  NONAME1     0.1656
      5 C5         -2.0800   -0.0298   -0.1519 C.ar    1  NONAME1    -0.0126
      6 C6         -2.0808    1.3800   -0.0078 C.ar    1  NONAME1    -0.0365
      7 O1         -5.7362    1.8172    0.1441 O.3     1  NONAME1    -0.4525
      8 C7         -6.5188    0.6095    0.0603 C.3     1  NONAME1     0.2334
      9 O2         -5.7210   -0.5836   -0.0480 O.3     1  NONAME1    -0.4489
     10 O3         -3.3817   -2.1237   -0.2541 O.3     1  NONAME1    -0.4913
     11 C8         -2.2019   -2.8773   -0.0109 C.3     1  NONAME1     0.0790
     12 C9         -0.8308    2.2419    0.0105 C.3     1  NONAME1    -0.0095
     13 C10         0.5015    1.5673    0.1905 C.2     1  NONAME1    -0.0868
     14 C11         1.6585    2.1585   -0.1319 C.2     1  NONAME1    -0.1023
     15 H1         -3.3661    3.1304    0.1829 H       1  NONAME1     0.0658
     16 H2         -1.1356   -0.5474   -0.2787 H       1  NONAME1     0.0658
     17 H3         -7.1726    0.6762   -0.8171 H       1  NONAME1     0.1166
     18 H4         -7.1437    0.5351    0.9576 H       1  NONAME1     0.1166
     19 H5         -2.4850   -3.9332    0.0425 H       1  NONAME1     0.0660
     20 H6         -1.4908   -2.7638   -0.8350 H       1  NONAME1     0.0660
     21 H7         -1.7432   -2.6083    0.9469 H       1  NONAME1     0.0660
     22 H8         -0.8198    2.8233   -0.9208 H       1  NONAME1     0.0355
     23 H9         -0.9389    2.9482    0.8447 H       1  NONAME1     0.0355
     24 H10         0.5397    0.5762    0.6341 H       1  NONAME1     0.0570
     25 H11         2.6087    1.6560    0.0268 H       1  NONAME1     0.0532
     26 H12         1.6907    3.1666   -0.5379 H       1  NONAME1     0.0532
@<TRIPOS>BOND
     1     1     2   ar
     2     2     3   ar
     3     3     4   ar
     4     4     5   ar
     5     5     6   ar
     6     1     6   ar
     7     7     8    1
     8     8     9    1
     9     7     2    1
    10     9     3    1
    11     4    10    1
    12    10    11    1
    13     6    12    1
    14    12    13    1
    15    13    14    2
    16     1    15    1
    17     5    16    1
    18     8    17    1
    19     8    18    1
    20    11    19    1
    21    11    20    1
    22    11    21    1
    23    12    22    1
    24    12    23    1
    25    13    24    1
    26    14    25    1
    27    14    26    1
