@<TRIPOS>MOLECULE
*****
 23 23 0 0 0
SMALL
USER_CHARGES

@<TRIPOS>ATOM
      1 C1          2.5177    0.5694    0.0786 C.ar    1  NONAME1    -0.0092
      2 C2          1.2821   -0.0953    0.0218 C.ar    1  NONAME1     0.1618
      3 C3          1.2735   -1.4943    0.0301 C.ar    1  NONAME1     0.1585
      4 C4          2.4758   -2.2060    0.0994 C.ar    1  NONAME1    -0.0160
      5 C5          3.6945   -1.5265    0.1555 C.ar    1  NONAME1    -0.0509
      6 C6          3.7315   -0.1300    0.1317 C.ar    1  NONAME1    -0.0211
      7 C7          4.9893    0.6243    0.2221 C.2     1  NONAME1    -0.0476
      8 C8          6.1751    0.1989   -0.2416 C.2     1  NONAME1     0.0272
      9 O1          0.2162    0.7633   -0.0334 O.3     1  NONAME1    -0.4914
     10 O2          0.1074   -2.2092   -0.0223 O.3     1  NONAME1    -0.5033
     11 C9         -1.0871    0.2104   -0.1128 C.3     1  NONAME1     0.0790
     12 C10         7.4553    1.0265   -0.1161 C.2     1  NONAME1     0.3795
     13 O3          8.4783    0.4490   -0.5847 O.co2   1  NONAME1    -0.2413
     14 O4          7.3459    2.1578    0.4310 O.co2   1  NONAME1    -0.2413
     15 H1          2.5288    1.6580    0.0722 H       1  NONAME1     0.0661
     16 H2          2.4913   -3.2910    0.1169 H       1  NONAME1     0.0655
     17 H3          4.6178   -2.0965    0.2280 H       1  NONAME1     0.0625
     18 H4          4.9337    1.6056    0.6923 H       1  NONAME1     0.0626
     19 H5          6.2910   -0.7557   -0.7431 H       1  NONAME1     0.0690
     20 H6          0.3279   -3.1542   -0.0217 H       1  NONAME1     0.2923
     21 H7         -1.7956    1.0437   -0.1599 H       1  NONAME1     0.0660
     22 H8         -1.2179   -0.3745   -1.0286 H       1  NONAME1     0.0660
     23 H9         -1.3303   -0.3673    0.7845 H       1  NONAME1     0.0660
@<TRIPOS>BOND
     1     1     2   ar
     2     2     3   ar
     3     3     4   ar
     4     4     5   ar
     5     5     6   ar
     6     1     6   ar
     7     6     7    1
     8     7     8    2
     9     2     9    1
    10     3    10    1
    11     9    11    1
    12     8    12    1
    13    12    13   ar
    14    12    14   ar
    15     1    15    1
    16     4    16    1
    17     5    17    1
    18     7    18    1
    19     8    19    1
    20    10    20    1
    21    11    21    1
    22    11    22    1
    23    11    23    1
