@<TRIPOS>MOLECULE
*****
 49 51 0 0 0
SMALL
USER_CHARGES

@<TRIPOS>ATOM
      1 C1          3.4287   -4.6555   -0.1877 C.ar    1  NONAME1     0.1468
      2 C2          2.2376   -3.9407   -0.3465 C.ar    1  NONAME1     0.0270
      3 C3          0.9954   -4.5421   -0.1157 C.ar    1  NONAME1     0.1687
      4 C4          0.9709   -5.8915    0.2493 C.ar    1  NONAME1     0.2043
      5 C5          2.1775   -6.5971    0.4379 C.ar    1  NONAME1     0.1769
      6 C6          3.4104   -5.9859    0.1909 C.ar    1  NONAME1     0.1128
      7 C7          4.7123   -6.6652    0.3064 C.ar    1  NONAME1     0.2382
      8 C8          5.9365   -5.7897    0.3368 C.ar    1  NONAME1     0.2108
      9 C9          5.8022   -4.4771    0.0266 C.ar    1  NONAME1     0.1844
     10 O1          4.5847   -3.9681   -0.4192 O.2     1  NONAME1    -0.4505
     11 C10         9.2491   -2.7238    0.3552 C.ar    1  NONAME1     0.1624
     12 C11         8.9354   -1.3849    0.1345 C.ar    1  NONAME1     0.1650
     13 C12         7.6060   -1.0586   -0.1291 C.ar    1  NONAME1     0.0259
     14 C13         6.6055   -2.0425   -0.1698 C.ar    1  NONAME1     0.1313
     15 C14         6.8820   -3.4112    0.0578 C.ar    1  NONAME1     0.0661
     16 C15         8.2330   -3.7046    0.3348 C.ar    1  NONAME1    -0.0020
     17 O2         -0.0549   -3.6893   -0.3080 O.3     1  NONAME1    -0.4912
     18 O3         -0.2034   -6.5642    0.4822 O.3     1  NONAME1    -0.4885
     19 O4          2.1105   -7.8850    0.9019 O.3     1  NONAME1    -0.5027
     20 O5          4.7994   -7.8862    0.3753 O.2     1  NONAME1    -0.2830
     21 O6          5.3288   -1.6056   -0.4248 O.3     1  NONAME1    -0.5059
     22 H1          7.3599   -0.0136   -0.3002 H       1  NONAME1     0.0692
     23 O7          9.7582   -0.2931    0.1416 O.3     1  NONAME1    -0.4913
     24 O8         10.5245   -3.0959    0.6968 O.3     1  NONAME1    -0.4914
     25 C16        -1.3250   -4.0511    0.2136 C.3     1  NONAME1     0.0790
     26 C17        -0.5578   -7.3906   -0.6343 C.3     1  NONAME1     0.0791
     27 O9          7.1233   -6.3603    0.7634 O.3     1  NONAME1    -0.4883
     28 C18         7.6104   -7.3526   -0.1403 C.3     1  NONAME1     0.0791
     29 C19        11.1608   -0.4997    0.2108 C.3     1  NONAME1     0.0790
     30 C20        11.0831   -4.0337   -0.2232 C.3     1  NONAME1     0.0790
     31 H2          2.2829   -2.8924   -0.6367 H       1  NONAME1     0.0692
     32 H3          8.5433   -4.7114    0.5796 H       1  NONAME1     0.0663
     33 H4          1.2072   -8.0229    1.2392 H       1  NONAME1     0.2923
     34 H5          5.3268   -0.6402   -0.5250 H       1  NONAME1     0.2922
     35 H6         -1.8097   -4.7853   -0.4344 H       1  NONAME1     0.0660
     36 H7         -1.2649   -4.3971    1.2502 H       1  NONAME1     0.0660
     37 H8         -1.9522   -3.1538    0.2060 H       1  NONAME1     0.0660
     38 H9         -1.5024   -7.0297   -1.0508 H       1  NONAME1     0.0660
     39 H10        -0.7158   -8.4088   -0.2659 H       1  NONAME1     0.0660
     40 H11         0.1950   -7.4144   -1.4307 H       1  NONAME1     0.0660
     41 H12         7.1064   -8.3110    0.0049 H       1  NONAME1     0.0660
     42 H13         7.5293   -7.0245   -1.1826 H       1  NONAME1     0.0660
     43 H14         8.6713   -7.5061    0.0809 H       1  NONAME1     0.0660
     44 H15        11.4570   -0.8871    1.1901 H       1  NONAME1     0.0660
     45 H16        11.5120   -1.1360   -0.6075 H       1  NONAME1     0.0660
     46 H17        11.6434    0.4753    0.0895 H       1  NONAME1     0.0660
     47 H18        10.7430   -5.0491    0.0007 H       1  NONAME1     0.0660
     48 H19        12.1703   -4.0087   -0.1001 H       1  NONAME1     0.0660
     49 H20        10.8565   -3.7690   -1.2622 H       1  NONAME1     0.0660
@<TRIPOS>BOND
     1     1     2   ar
     2     2     3   ar
     3     3     4   ar
     4     4     5   ar
     5     5     6   ar
     6     7     8   ar
     7     8     9   ar
     8     9    10   ar
     9     1     6   ar
    10     1    10   ar
    11     6     7   ar
    12    11    12   ar
    13    12    13   ar
    14    13    14   ar
    15    14    15   ar
    16    15    16   ar
    17    11    16   ar
    18     9    15    1
    19     3    17    1
    20     4    18    1
    21     5    19    1
    22     7    20    2
    23    14    21    1
    24    13    22    1
    25    12    23    1
    26    11    24    1
    27    25    17    1
    28    18    26    1
    29     8    27    1
    30    27    28    1
    31    29    23    1
    32    24    30    1
    33     2    31    1
    34    16    32    1
    35    19    33    1
    36    21    34    1
    37    25    35    1
    38    25    36    1
    39    25    37    1
    40    26    38    1
    41    26    39    1
    42    26    40    1
    43    28    41    1
    44    28    42    1
    45    28    43    1
    46    29    44    1
    47    29    45    1
    48    29    46    1
    49    30    47    1
    50    30    48    1
    51    30    49    1
