@<TRIPOS>MOLECULE
*****
 46 49 0 0 0
SMALL
USER_CHARGES

@<TRIPOS>ATOM
      1 C1         -8.0180    0.8793   -0.0208 C.ar    1  NONAME1     0.0699
      2 C2         -9.2014    0.1633    0.0876 C.ar    1  NONAME1     0.1836
      3 C3         -9.2541   -1.2219    0.0892 C.ar    1  NONAME1     0.2029
      4 C4         -8.0470   -1.9150   -0.0309 C.ar    1  NONAME1     0.1734
      5 C5         -6.8186   -1.2391   -0.1549 C.ar    1  NONAME1     0.0748
      6 C6         -6.7869    0.1780   -0.1391 C.ar    1  NONAME1    -0.0140
      7 C7         -5.4963    0.9381   -0.2675 C.3     1  NONAME1     0.0033
      8 C8         -5.5352   -1.9924   -0.3023 C.2     1  NONAME1     0.2315
      9 C9         -4.2410   -1.2269   -0.2227 C.2     1  NONAME1     0.1713
     10 C10        -4.2438    0.1189   -0.1753 C.2     1  NONAME1     0.0096
     11 C11        -8.4128    2.2449    0.0352 C.ar    1  NONAME1     0.1658
     12 C12        -9.7849    2.2680    0.1455 C.ar    1  NONAME1     0.1348
     13 O1        -10.2733    0.9982    0.1890 O.2     1  NONAME1    -0.4554
     14 C13        -2.9928    0.9091   -0.0414 C.ar    1  NONAME1    -0.0177
     15 C14        -1.5732    2.7634   -0.7533 C.ar    1  NONAME1    -0.0194
     16 C15        -2.7158    1.9689   -0.9174 C.ar    1  NONAME1    -0.0508
     17 C16        -2.0889    0.6574    0.9983 C.ar    1  NONAME1    -0.0508
     18 C17        -0.9450    1.4463    1.1568 C.ar    1  NONAME1    -0.0194
     19 C18        -0.6880    2.5109    0.2926 C.ar    1  NONAME1     0.1201
     20 O2         -5.5127   -3.2052   -0.4839 O.2     1  NONAME1    -0.2832
     21 O3         -7.5734    3.3018   -0.0612 O.3     1  NONAME1    -0.4913
     22 O4        -10.4303   -1.9254    0.2049 O.3     1  NONAME1    -0.5009
     23 O5         -8.1297   -3.2830   -0.0054 O.3     1  NONAME1    -0.5027
     24 O6         -3.0507   -1.9404   -0.1431 O.2     1  NONAME1    -0.4910
     25 O7          0.4506    3.2153    0.5689 O.3     1  NONAME1    -0.4951
     26 C19        -7.9620    4.4160    0.7352 C.3     1  NONAME1     0.0790
     27 C20        -2.7530   -2.6218   -1.3595 C.3     1  NONAME1     0.0790
     28 C21         0.6367    4.4328   -0.1422 C.3     1  NONAME1     0.0788
     29 H1         -5.5216    1.4635   -1.2304 H       1  NONAME1     0.0363
     30 H2         -5.4747    1.6928    0.5300 H       1  NONAME1     0.0363
     31 H3        -10.5277    3.0516    0.1929 H       1  NONAME1     0.1068
     32 H4         -1.4051    3.5668   -1.4626 H       1  NONAME1     0.0654
     33 H5         -3.3813    2.1908   -1.7482 H       1  NONAME1     0.0625
     34 H6         -2.2673   -0.1530    1.7024 H       1  NONAME1     0.0625
     35 H7         -0.2554    1.2327    1.9698 H       1  NONAME1     0.0654
     36 H8        -11.1378   -1.2542    0.2700 H       1  NONAME1     0.2924
     37 H9         -9.0780   -3.5003    0.0849 H       1  NONAME1     0.2923
     38 H10        -8.0920    4.1236    1.7833 H       1  NONAME1     0.0660
     39 H11        -7.1568    5.1555    0.6903 H       1  NONAME1     0.0660
     40 H12        -8.8713    4.8853    0.3466 H       1  NONAME1     0.0660
     41 H13        -3.3254   -3.5487   -1.4476 H       1  NONAME1     0.0660
     42 H14        -1.6925   -2.8906   -1.3380 H       1  NONAME1     0.0660
     43 H15        -2.9208   -1.9821   -2.2332 H       1  NONAME1     0.0660
     44 H16         0.8077    4.2441   -1.2069 H       1  NONAME1     0.0660
     45 H17        -0.2082    5.1136    0.0081 H       1  NONAME1     0.0660
     46 H18         1.5311    4.9202    0.2577 H       1  NONAME1     0.0660
@<TRIPOS>BOND
     1     1     2   ar
     2     2     3   ar
     3     3     4   ar
     4     4     5   ar
     5     5     6   ar
     6     1     6   ar
     7     8     9    1
     8     9    10    2
     9     7    10    1
    10     5     8    1
    11     7     6    1
    12    11    12   ar
    13    12    13   ar
    14    13     2   ar
    15    11     1   ar
    16    10    14    1
    17    15    16   ar
    18    17    18   ar
    19    18    19   ar
    20    15    19   ar
    21    16    14   ar
    22    14    17   ar
    23     8    20    2
    24    11    21    1
    25     3    22    1
    26     4    23    1
    27     9    24    1
    28    19    25    1
    29    21    26    1
    30    24    27    1
    31    25    28    1
    32     7    29    1
    33     7    30    1
    34    12    31    1
    35    15    32    1
    36    16    33    1
    37    17    34    1
    38    18    35    1
    39    22    36    1
    40    23    37    1
    41    26    38    1
    42    26    39    1
    43    26    40    1
    44    27    41    1
    45    27    42    1
    46    27    43    1
    47    28    44    1
    48    28    45    1
    49    28    46    1
