@<TRIPOS>MOLECULE
*****
 82 85 0 0 0
SMALL
USER_CHARGES

@<TRIPOS>ATOM
      1 C1         -6.8745   -5.3434   -0.3757 C.3     1  NONAME1     0.0147
      2 C2         -5.6032   -4.4794   -0.1611 C.2     1  NONAME1    -0.0612
      3 C3         -5.8162   -2.9555   -0.0191 C.3     1  NONAME1    -0.0045
      4 C4         -6.9506   -2.6722    0.9878 C.3     1  NONAME1    -0.0170
      5 C5         -8.2355   -3.3799    0.5871 C.3     1  NONAME1     0.0824
      6 C6         -8.0189   -4.8975    0.5775 C.3     1  NONAME1     0.0898
      7 C7         -4.4823   -2.1650    0.3129 C.3     1  NONAME1     0.0364
      8 C8         -4.3563   -4.9978   -0.1887 C.2     1  NONAME1    -0.0836
      9 C9         -3.0903   -4.1881   -0.2512 C.3     1  NONAME1    -0.0302
     10 C10        -3.3847   -2.7301   -0.6501 C.3     1  NONAME1    -0.0190
     11 C11        -3.3623    0.1390    0.0105 C.3     1  NONAME1     0.0127
     12 C12        -4.6332   -0.6794   -0.0089 C.2     1  NONAME1     0.1406
     13 C13        -2.1007   -1.8734   -0.9587 C.3     1  NONAME1    -0.0195
     14 C14        -2.3968   -0.3320   -1.0928 C.3     1  NONAME1    -0.0117
     15 C15        -0.9670    0.3063   -0.9740 C.3     1  NONAME1     0.0242
     16 C16        -1.0150   -1.9053    0.1385 C.3     1  NONAME1    -0.0203
     17 C17        -0.1546   -0.6563   -0.0784 C.3     1  NONAME1     0.0619
     18 C18        -0.8750    1.7718   -0.4930 C.3     1  NONAME1     0.1186
     19 C19         0.5609    2.3220   -0.6563 C.2     1  NONAME1     0.1620
     20 C20         0.8460    3.6626    0.0041 C.3     1  NONAME1     0.0110
     21 C21         2.0188    4.3970   -0.6425 C.3     1  NONAME1    -0.0178
     22 C22         2.4679    5.6809    0.0827 C.3     1  NONAME1     0.0609
     23 O1          3.4582    6.2891   -0.7539 O.3     1  NONAME1    -0.3891
     24 O2          1.0499   -1.0342   -0.7411 O.3     1  NONAME1    -0.3914
     25 C23        -7.2951   -5.1927   -1.8578 C.3     1  NONAME1    -0.0536
     26 C24        -6.6447   -6.8581   -0.1348 C.3     1  NONAME1    -0.0536
     27 O3         -9.2652   -5.5198    0.2303 O.3     1  NONAME1    -0.3884
     28 O4         -9.2707   -3.0845    1.5364 O.3     1  NONAME1    -0.3892
     29 C25        -4.1575   -2.2775    1.8198 C.3     1  NONAME1    -0.0520
     30 H1         -3.8868   -2.7788   -1.6318 H       1  NONAME1     0.0319
     31 O5         -1.2912    1.8804    0.8629 O.3     1  NONAME1    -0.3839
     32 O6          1.4331    1.6987   -1.2648 O.2     1  NONAME1    -0.2947
     33 C26         1.3275    6.6858    0.2561 C.3     1  NONAME1    -0.0363
     34 C27         3.1213    5.3720    1.4324 C.3     1  NONAME1    -0.0363
     35 O7         -5.7157   -0.1441   -0.2468 O.2     1  NONAME1    -0.2968
     36 H2         -1.5319    2.3959   -1.1098 H       1  NONAME1     0.0676
     37 H3         -0.5215    0.2916   -1.9794 H       1  NONAME1     0.0361
     38 C28        -1.4583   -2.4480   -2.2623 C.3     1  NONAME1    -0.0587
     39 H4         -6.1642   -2.6036   -1.0018 H       1  NONAME1     0.0356
     40 C29        -3.0203    0.0547   -2.4547 C.3     1  NONAME1    -0.0582
     41 H5         -6.6777   -3.0016    1.9985 H       1  NONAME1     0.0297
     42 H6         -7.1507   -1.5994    1.0749 H       1  NONAME1     0.0297
     43 H7         -8.5997   -3.0297   -0.3851 H       1  NONAME1     0.0619
     44 H8         -7.7953   -5.2283    1.6010 H       1  NONAME1     0.0628
     45 H9         -4.1956   -6.0689   -0.2777 H       1  NONAME1     0.0572
     46 H10        -2.5662   -4.2510    0.7084 H       1  NONAME1     0.0311
     47 H11        -2.4427   -4.6602   -0.9965 H       1  NONAME1     0.0311
     48 H12        -2.9283    0.0594    1.0107 H       1  NONAME1     0.0347
     49 H13        -3.6394    1.1910   -0.1302 H       1  NONAME1     0.0347
     50 H14        -1.4525   -1.8401    1.1328 H       1  NONAME1     0.0296
     51 H15        -0.4224   -2.8266    0.1101 H       1  NONAME1     0.0296
     52 H16         0.1295   -0.2254    0.8866 H       1  NONAME1     0.0597
     53 H17        -0.0571    4.2762   -0.0779 H       1  NONAME1     0.0343
     54 H18         1.0378    3.4621    1.0625 H       1  NONAME1     0.0343
     55 H19         2.8835    3.7253   -0.7320 H       1  NONAME1     0.0297
     56 H20         1.7538    4.6413   -1.6809 H       1  NONAME1     0.0297
     57 H21         3.8007    7.0785   -0.3004 H       1  NONAME1     0.2101
     58 H22         1.5117   -0.2082   -1.0021 H       1  NONAME1     0.2098
     59 H23        -7.5552   -4.1608   -2.1144 H       1  NONAME1     0.0239
     60 H24        -6.4827   -5.4976   -2.5292 H       1  NONAME1     0.0239
     61 H25        -8.1621   -5.8187   -2.0965 H       1  NONAME1     0.0239
     62 H26        -7.5766   -7.4259   -0.2392 H       1  NONAME1     0.0239
     63 H27        -5.9392   -7.2867   -0.8556 H       1  NONAME1     0.0239
     64 H28        -6.2584   -7.0446    0.8741 H       1  NONAME1     0.0239
     65 H29        -9.9313   -5.0598    0.7799 H       1  NONAME1     0.2099
     66 H30        -9.4033   -2.1195    1.5165 H       1  NONAME1     0.2099
     67 H31        -4.2072   -3.3086    2.1829 H       1  NONAME1     0.0239
     68 H32        -4.8609   -1.6845    2.4171 H       1  NONAME1     0.0239
     69 H33        -3.1735   -1.8921    2.0794 H       1  NONAME1     0.0239
     70 H34        -1.5540    2.8023    1.0320 H       1  NONAME1     0.2104
     71 H35         1.7038    7.6386    0.6463 H       1  NONAME1     0.0257
     72 H36         0.8580    6.9108   -0.7081 H       1  NONAME1     0.0257
     73 H37         0.5577    6.3208    0.9430 H       1  NONAME1     0.0257
     74 H38         2.4126    4.9422    2.1462 H       1  NONAME1     0.0257
     75 H39         3.9577    4.6747    1.3087 H       1  NONAME1     0.0257
     76 H40         3.5424    6.2805    1.8786 H       1  NONAME1     0.0257
     77 H41        -1.0330   -3.4431   -2.0961 H       1  NONAME1     0.0235
     78 H42        -2.1970   -2.5400   -3.0663 H       1  NONAME1     0.0235
     79 H43        -0.6441   -1.8275   -2.6465 H       1  NONAME1     0.0235
     80 H44        -3.2596    1.1238   -2.4862 H       1  NONAME1     0.0235
     81 H45        -2.3421   -0.1399   -3.2918 H       1  NONAME1     0.0235
     82 H46        -3.9450   -0.4988   -2.6491 H       1  NONAME1     0.0235
@<TRIPOS>BOND
     1     1     2    1
     2     2     3    1
     3     3     4    1
     4     4     5    1
     5     5     6    1
     6     1     6    1
     7     8     9    1
     8     9    10    1
     9     7    10    1
    10     2     8    2
    11     7     3    1
    12    11    12    1
    13    13    14    1
    14    11    14    1
    15    12     7    1
    16    10    13    1
    17    16    17    1
    18    15    17    1
    19    13    16    1
    20    15    14    1
    21    18    19    1
    22    19    20    1
    23    20    21    1
    24    21    22    1
    25    22    23    1
    26    15    18    1
    27    17    24    1
    28     1    25    1
    29     1    26    1
    30     6    27    1
    31     5    28    1
    32     7    29    1
    33    10    30    1
    34    18    31    1
    35    19    32    2
    36    22    33    1
    37    22    34    1
    38    12    35    2
    39    18    36    1
    40    15    37    1
    41    13    38    1
    42     3    39    1
    43    14    40    1
    44     4    41    1
    45     4    42    1
    46     5    43    1
    47     6    44    1
    48     8    45    1
    49     9    46    1
    50     9    47    1
    51    11    48    1
    52    11    49    1
    53    16    50    1
    54    16    51    1
    55    17    52    1
    56    20    53    1
    57    20    54    1
    58    21    55    1
    59    21    56    1
    60    23    57    1
    61    24    58    1
    62    25    59    1
    63    25    60    1
    64    25    61    1
    65    26    62    1
    66    26    63    1
    67    26    64    1
    68    27    65    1
    69    28    66    1
    70    29    67    1
    71    29    68    1
    72    29    69    1
    73    31    70    1
    74    33    71    1
    75    33    72    1
    76    33    73    1
    77    34    74    1
    78    34    75    1
    79    34    76    1
    80    38    77    1
    81    38    78    1
    82    38    79    1
    83    40    80    1
    84    40    81    1
    85    40    82    1
