@<TRIPOS>MOLECULE
*****
 62 65 0 0 0
SMALL
USER_CHARGES

@<TRIPOS>ATOM
      1 C           3.5592   -4.7189   -0.0974 C.ar    1  NONAME1     0.1468
      2 C           2.3858   -3.9713   -0.0447 C.ar    1  NONAME1     0.0270
      3 C           1.1355   -4.5930    0.1029 C.ar    1  NONAME1     0.1687
      4 C           1.0675   -5.9961    0.1926 C.ar    1  NONAME1     0.2043
      5 C           2.2625   -6.7445    0.1713 C.ar    1  NONAME1     0.1769
      6 C           3.5006   -6.1018    0.0122 C.ar    1  NONAME1     0.1128
      7 C           4.7614   -6.8564   -0.0377 C.ar    1  NONAME1     0.2382
      8 C           6.0048   -6.0845   -0.2838 C.ar    1  NONAME1     0.2107
      9 C           5.9031   -4.7463   -0.3941 C.ar    1  NONAME1     0.1808
     10 O           4.7327   -4.0248   -0.2492 O.2     1  NONAME1    -0.4507
     11 C           8.9480   -3.2759   -2.0539 C.ar    1  NONAME1    -0.0192
     12 C           9.5138   -2.5713   -0.9925 C.ar    1  NONAME1     0.1240
     13 C           8.8331   -2.4546    0.2173 C.ar    1  NONAME1    -0.0192
     14 C           7.6224   -3.1299    0.3957 C.ar    1  NONAME1    -0.0475
     15 C           7.0910   -3.9158   -0.6370 C.ar    1  NONAME1     0.0213
     16 C           7.7463   -3.9596   -1.8736 C.ar    1  NONAME1    -0.0475
     17 O           0.1138   -3.6800    0.1304 O.3     1  NONAME1    -0.4912
     18 O          -0.1552   -6.5885    0.3827 O.3     1  NONAME1    -0.4885
     19 O           2.1953   -8.1090    0.3330 O.3     1  NONAME1    -0.5027
     20 O           4.7561   -8.0748    0.1210 O.2     1  NONAME1    -0.2830
     21 H           9.2374   -1.8599    1.0298 H       1  NONAME1     0.0654
     22 C          -1.2252   -4.1423    0.2199 C.3     1  NONAME1     0.0790
     23 C          -0.4203   -7.7020   -0.4694 C.3     1  NONAME1     0.0791
     24 O           7.1862   -6.7786   -0.4758 O.3     1  NONAME1    -0.4883
     25 C           7.8163   -7.0660    0.7702 C.3     1  NONAME1     0.0791
     26 O          16.3622   -1.0192    0.4260 O.3     1  NONAME1    -0.3924
     27 C          15.1227   -0.7694   -0.2326 C.3     1  NONAME1     0.0731
     28 C          14.0732   -1.8265    0.1418 C.3     1  NONAME1     0.1140
     29 O          12.8937   -1.5470   -0.6103 O.3     1  NONAME1    -0.3313
     30 C          11.7824   -2.4197   -0.3299 C.3     1  NONAME1     0.2308
     31 O          10.7298   -1.9949   -1.2210 O.3     1  NONAME1    -0.4608
     32 C          12.1786   -3.9007   -0.5754 C.3     1  NONAME1     0.1454
     33 O          11.1853   -4.8279   -0.1013 O.3     1  NONAME1    -0.3829
     34 C          13.4752   -4.2424    0.1543 C.3     1  NONAME1     0.1152
     35 O          13.8899   -5.5688   -0.2193 O.3     1  NONAME1    -0.3864
     36 C          14.5840   -3.2438   -0.1533 C.3     1  NONAME1     0.1120
     37 O          15.7173   -3.6063    0.6453 O.3     1  NONAME1    -0.3865
     38 H           2.4360   -2.8867   -0.1219 H       1  NONAME1     0.0692
     39 H           9.4692   -3.3364   -3.0050 H       1  NONAME1     0.0654
     40 H           7.1161   -3.0688    1.3561 H       1  NONAME1     0.0626
     41 H           7.3472   -4.5567   -2.6900 H       1  NONAME1     0.0626
     42 H           3.1076   -8.4782    0.3170 H       1  NONAME1     0.2923
     43 H          -1.8787   -3.2646    0.1902 H       1  NONAME1     0.0660
     44 H          -1.4891   -4.7678   -0.6385 H       1  NONAME1     0.0660
     45 H          -1.4085   -4.6476    1.1730 H       1  NONAME1     0.0660
     46 H          -1.4926   -7.7006   -0.6891 H       1  NONAME1     0.0660
     47 H          -0.1953   -8.6374    0.0511 H       1  NONAME1     0.0660
     48 H           0.1127   -7.6453   -1.4253 H       1  NONAME1     0.0660
     49 H           8.6589   -7.7356    0.5749 H       1  NONAME1     0.0660
     50 H           8.2098   -6.1495    1.2221 H       1  NONAME1     0.0660
     51 H           7.1358   -7.5667    1.4668 H       1  NONAME1     0.0660
     52 H          16.9450   -0.2663    0.2116 H       1  NONAME1     0.2095
     53 H          15.2957   -0.7633   -1.3148 H       1  NONAME1     0.0584
     54 H          14.7660    0.2279    0.0473 H       1  NONAME1     0.0584
     55 H          13.8629   -1.7276    1.2152 H       1  NONAME1     0.0647
     56 H          11.4813   -2.2562    0.7122 H       1  NONAME1     0.1084
     57 H          12.2880   -4.0822   -1.6517 H       1  NONAME1     0.0683
     58 H          11.5829   -5.7120   -0.2339 H       1  NONAME1     0.2102
     59 H          13.2960   -4.2897    1.2365 H       1  NONAME1     0.0648
     60 H          14.7972   -5.6557    0.1402 H       1  NONAME1     0.2100
     61 H          14.8813   -3.3408   -1.2047 H       1  NONAME1     0.0647
     62 H          16.3020   -2.8156    0.6725 H       1  NONAME1     0.2100
@<TRIPOS>BOND
     1     1     2   ar
     2     2     3   ar
     3     3     4   ar
     4     4     5   ar
     5     5     6   ar
     6     7     8   ar
     7     8     9   ar
     8     9    10   ar
     9     1     6   ar
    10     1    10   ar
    11     6     7   ar
    12    11    12   ar
    13    12    13   ar
    14    13    14   ar
    15    14    15   ar
    16    15    16   ar
    17    11    16   ar
    18     9    15    1
    19     3    17    1
    20     4    18    1
    21     5    19    1
    22     7    20    2
    23    13    21    1
    24    22    17    1
    25    18    23    1
    26     8    24    1
    27    24    25    1
    28    26    27    1
    29    28    27    1
    30    28    29    1
    31    29    30    1
    32    30    31    1
    33    32    30    1
    34    32    33    1
    35    34    32    1
    36    34    35    1
    37    34    36    1
    38    36    28    1
    39    36    37    1
    40    31    12    1
    41     2    38    1
    42    11    39    1
    43    14    40    1
    44    16    41    1
    45    19    42    1
    46    22    43    1
    47    22    44    1
    48    22    45    1
    49    23    46    1
    50    23    47    1
    51    23    48    1
    52    25    49    1
    53    25    50    1
    54    25    51    1
    55    26    52    1
    56    27    53    1
    57    27    54    1
    58    28    55    1
    59    30    56    1
    60    32    57    1
    61    33    58    1
    62    34    59    1
    63    35    60    1
    64    36    61    1
    65    37    62    1
