@<TRIPOS>MOLECULE
*****
 41 43 0 0 0
SMALL
USER_CHARGES

@<TRIPOS>ATOM
      1 C           2.9639   -4.8077   -0.2275 C.ar    1  NONAME1     0.1468
      2 C           1.7174   -4.1929   -0.1651 C.ar    1  NONAME1     0.0270
      3 C           0.5458   -4.9486   -0.0110 C.ar    1  NONAME1     0.1687
      4 C           0.6281   -6.3517    0.0914 C.ar    1  NONAME1     0.2043
      5 C           1.8987   -6.9644    0.0447 C.ar    1  NONAME1     0.1769
      6 C           3.0585   -6.1876   -0.1266 C.ar    1  NONAME1     0.1128
      7 C           4.3991   -6.7919   -0.1766 C.ar    1  NONAME1     0.2382
      8 C           5.5555   -5.8769   -0.3684 C.ar    1  NONAME1     0.2107
      9 C           5.3079   -4.5574   -0.4721 C.ar    1  NONAME1     0.1808
     10 O           4.0501   -3.9857   -0.3726 O.2     1  NONAME1    -0.4507
     11 C           8.3090   -2.6936   -1.8413 C.ar    1  NONAME1    -0.0195
     12 C           8.4236   -1.6692   -0.9096 C.ar    1  NONAME1     0.1169
     13 C           7.5287   -1.5659    0.1494 C.ar    1  NONAME1    -0.0195
     14 C           6.5060   -2.5096    0.2773 C.ar    1  NONAME1    -0.0475
     15 C           6.3811   -3.5607   -0.6453 C.ar    1  NONAME1     0.0213
     16 C           7.2881   -3.6377   -1.7115 C.ar    1  NONAME1    -0.0475
     17 O          -0.5705   -4.1536    0.0388 O.3     1  NONAME1    -0.4912
     18 O          -0.5322   -7.0412    0.3347 O.3     1  NONAME1    -0.4885
     19 O           1.9944   -8.3269    0.2075 O.3     1  NONAME1    -0.5027
     20 O           4.5307   -8.0062   -0.0457 O.2     1  NONAME1    -0.2830
     21 H           7.6095   -0.7679    0.8807 H       1  NONAME1     0.0654
     22 C          -1.8435   -4.7537   -0.1518 C.3     1  NONAME1     0.0790
     23 C          -0.6699   -8.3053   -0.3075 C.3     1  NONAME1     0.0791
     24 O           6.8136   -6.4386   -0.4895 O.3     1  NONAME1    -0.4883
     25 C           7.4467   -6.5471    0.7837 C.3     1  NONAME1     0.0791
     26 O           9.4402   -0.7756   -1.0701 O.3     1  NONAME1    -0.5068
     27 H           1.6473   -3.1092   -0.2375 H       1  NONAME1     0.0692
     28 H           9.0135   -2.7606   -2.6655 H       1  NONAME1     0.0654
     29 H           5.8111   -2.4259    1.1105 H       1  NONAME1     0.0626
     30 H           7.2122   -4.4368   -2.4460 H       1  NONAME1     0.0626
     31 H           2.9417   -8.5906    0.1638 H       1  NONAME1     0.2923
     32 H          -2.5657   -3.9470   -0.3141 H       1  NONAME1     0.0660
     33 H          -2.1598   -5.2918    0.7465 H       1  NONAME1     0.0660
     34 H          -1.8649   -5.3902   -1.0423 H       1  NONAME1     0.0660
     35 H          -1.7391   -8.4769   -0.4678 H       1  NONAME1     0.0660
     36 H          -0.3093   -9.1049    0.3460 H       1  NONAME1     0.0660
     37 H          -0.1829   -8.3369   -1.2883 H       1  NONAME1     0.0660
     38 H           8.2771   -7.2527    0.6890 H       1  NONAME1     0.0660
     39 H           7.8579   -5.5772    1.0824 H       1  NONAME1     0.0660
     40 H           6.7660   -6.9201    1.5568 H       1  NONAME1     0.0660
     41 H           9.3978   -0.1228   -0.3523 H       1  NONAME1     0.2921
@<TRIPOS>BOND
     1     1     2   ar
     2     2     3   ar
     3     3     4   ar
     4     4     5   ar
     5     5     6   ar
     6     7     8   ar
     7     8     9   ar
     8     9    10   ar
     9     1     6   ar
    10     1    10   ar
    11     6     7   ar
    12    11    12   ar
    13    12    13   ar
    14    13    14   ar
    15    14    15   ar
    16    15    16   ar
    17    11    16   ar
    18     9    15    1
    19     3    17    1
    20     4    18    1
    21     5    19    1
    22     7    20    2
    23    13    21    1
    24    22    17    1
    25    18    23    1
    26     8    24    1
    27    24    25    1
    28    12    26    1
    29     2    27    1
    30    11    28    1
    31    14    29    1
    32    16    30    1
    33    19    31    1
    34    22    32    1
    35    22    33    1
    36    22    34    1
    37    23    35    1
    38    23    36    1
    39    23    37    1
    40    25    38    1
    41    25    39    1
    42    25    40    1
    43    26    41    1
