@<TRIPOS>MOLECULE
*****
 48 50 0 0 0
SMALL
USER_CHARGES

@<TRIPOS>ATOM
      1 C1         -6.5111    5.7740   -0.2483 C.ar    1  NONAME1     0.1692
      2 C2         -7.7001    5.0221   -0.2167 C.ar    1  NONAME1     0.2075
      3 C3         -7.6394    3.6488    0.0661 C.ar    1  NONAME1     0.2077
      4 C4         -6.4024    3.0658    0.3908 C.ar    1  NONAME1     0.1734
      5 C5         -5.2188    3.8305    0.3583 C.ar    1  NONAME1     0.0693
      6 C6         -5.2584    5.1851   -0.0020 C.ar    1  NONAME1     0.0127
      7 C7         -4.0041    6.0243   -0.0492 C.3     1  NONAME1    -0.0161
      8 C8         -3.9174    3.2138    0.7313 C.2     1  NONAME1     0.1677
      9 C9         -2.6881    4.0866    0.7981 C.3     1  NONAME1     0.0177
     10 C10        -2.7288    5.1904   -0.2617 C.3     1  NONAME1    -0.0047
     11 C11        -1.4288    5.9899   -0.2659 C.ar    1  NONAME1    -0.0433
     12 C12        -0.1343    8.0368    0.0662 C.ar    1  NONAME1    -0.0197
     13 C13        -1.3560    7.3484    0.0751 C.ar    1  NONAME1    -0.0548
     14 C14        -0.2354    5.3476   -0.6350 C.ar    1  NONAME1    -0.0548
     15 C15         0.9831    6.0335   -0.6360 C.ar    1  NONAME1    -0.0197
     16 C16         1.0426    7.3803   -0.2829 C.ar    1  NONAME1     0.1201
     17 O1         -3.8803    2.0236    1.0421 O.2     1  NONAME1    -0.2919
     18 O2         -6.5434    7.1083   -0.5861 O.3     1  NONAME1    -0.4910
     19 O3         -8.8511    5.6904   -0.5605 O.3     1  NONAME1    -0.4884
     20 O4         -8.8151    2.9397    0.0698 O.3     1  NONAME1    -0.4884
     21 O5         -6.3860    1.7413    0.7605 O.3     1  NONAME1    -0.5027
     22 O6          2.2929    7.9313   -0.3208 O.3     1  NONAME1    -0.4951
     23 C17         2.4017    9.3029    0.0389 C.3     1  NONAME1     0.0788
     24 C18        -6.9274    7.9045    0.5358 C.3     1  NONAME1     0.0790
     25 C19        -9.9627    5.4462    0.2978 C.3     1  NONAME1     0.0791
     26 C20        -8.7801    1.7503   -0.7164 C.3     1  NONAME1     0.0791
     27 H1         -4.0787    6.7559   -0.8637 H       1  NONAME1     0.0320
     28 H2         -3.9509    6.5765    0.8978 H       1  NONAME1     0.0320
     29 H3         -2.6117    4.5011    1.8105 H       1  NONAME1     0.0351
     30 H4         -1.8214    3.4339    0.6406 H       1  NONAME1     0.0351
     31 H5         -2.8120    4.7209   -1.2539 H       1  NONAME1     0.0356
     32 H6         -0.1422    9.0870    0.3384 H       1  NONAME1     0.0654
     33 H7         -2.2413    7.9131    0.3545 H       1  NONAME1     0.0622
     34 H8         -0.2375    4.2987   -0.9257 H       1  NONAME1     0.0622
     35 H9          1.8946    5.5103   -0.9154 H       1  NONAME1     0.0654
     36 H10        -5.4605    1.4829    0.9728 H       1  NONAME1     0.2923
     37 H11         3.4574    9.5833   -0.0261 H       1  NONAME1     0.0660
     38 H12         1.8446    9.9379   -0.6579 H       1  NONAME1     0.0660
     39 H13         2.0769    9.4688    1.0715 H       1  NONAME1     0.0660
     40 H14        -6.1905    7.8212    1.3422 H       1  NONAME1     0.0660
     41 H15        -6.9540    8.9486    0.2099 H       1  NONAME1     0.0660
     42 H16        -7.9226    7.6432    0.9080 H       1  NONAME1     0.0660
     43 H17       -10.5654    6.3595    0.3243 H       1  NONAME1     0.0660
     44 H18       -10.5910    4.6512   -0.1136 H       1  NONAME1     0.0660
     45 H19        -9.6629    5.2197    1.3274 H       1  NONAME1     0.0660
     46 H20        -9.7785    1.6064   -1.1413 H       1  NONAME1     0.0660
     47 H21        -8.5663    0.8856   -0.0816 H       1  NONAME1     0.0660
     48 H22        -8.0698    1.8085   -1.5490 H       1  NONAME1     0.0660
@<TRIPOS>BOND
     1     1     2   ar
     2     2     3   ar
     3     3     4   ar
     4     4     5   ar
     5     5     6   ar
     6     1     6   ar
     7     8     9    1
     8     9    10    1
     9     7    10    1
    10     5     8    1
    11     7     6    1
    12    10    11    1
    13    12    13   ar
    14    14    15   ar
    15    15    16   ar
    16    12    16   ar
    17    13    11   ar
    18    11    14   ar
    19     8    17    2
    20     1    18    1
    21     2    19    1
    22     3    20    1
    23     4    21    1
    24    16    22    1
    25    22    23    1
    26    18    24    1
    27    19    25    1
    28    20    26    1
    29     7    27    1
    30     7    28    1
    31     9    29    1
    32     9    30    1
    33    10    31    1
    34    12    32    1
    35    13    33    1
    36    14    34    1
    37    15    35    1
    38    21    36    1
    39    23    37    1
    40    23    38    1
    41    23    39    1
    42    24    40    1
    43    24    41    1
    44    24    42    1
    45    25    43    1
    46    25    44    1
    47    25    45    1
    48    26    46    1
    49    26    47    1
    50    26    48    1
