@<TRIPOS>MOLECULE
*****
 30 31 0 0 0
SMALL
USER_CHARGES

@<TRIPOS>ATOM
      1 C1          3.8937   -1.9300    0.0400 C.ar    1  NONAME1     0.0593
      2 C2          3.9348   -3.2481   -0.4322 C.ar    1  NONAME1    -0.0443
      3 C3          5.1579   -3.9098   -0.5591 C.ar    1  NONAME1    -0.0184
      4 C4          6.3490   -3.2688   -0.2156 C.ar    1  NONAME1     0.1324
      5 C5          6.3333   -1.9532    0.2540 C.ar    1  NONAME1     0.0586
      6 C6          5.1008   -1.2864    0.3799 C.ar    1  NONAME1     0.1379
      7 C7          7.5981   -1.3117    0.5929 C.2     1  NONAME1    -0.0478
      8 O1          7.4823   -4.0127   -0.3850 O.3     1  NONAME1    -0.4815
      9 C8          8.7519   -3.4602    0.0202 C.3     1  NONAME1     0.1235
     10 C9          8.7228   -2.0234    0.4821 C.2     1  NONAME1    -0.0408
     11 C10         2.5928   -1.2088    0.1836 C.2     1  NONAME1     0.1636
     12 O2          5.1215    0.0095    0.8457 O.3     1  NONAME1    -0.5054
     13 C11         9.6772   -3.5808   -1.1965 C.3     1  NONAME1    -0.0215
     14 C12         9.2734   -4.3488    1.1555 C.3     1  NONAME1    -0.0215
     15 C13         1.3074   -1.9138   -0.1606 C.3     1  NONAME1    -0.0013
     16 O3          2.5946   -0.0439    0.5841 O.2     1  NONAME1    -0.2922
     17 H1          3.0347   -3.7877   -0.7109 H       1  NONAME1     0.0627
     18 H2          5.1868   -4.9329   -0.9274 H       1  NONAME1     0.0654
     19 H3          7.6003   -0.2814    0.9314 H       1  NONAME1     0.0624
     20 H4          9.6693   -1.5565    0.7419 H       1  NONAME1     0.0611
     21 H5          4.1966    0.3443    0.8739 H       1  NONAME1     0.2922
     22 H6          9.7233   -4.6173   -1.5509 H       1  NONAME1     0.0271
     23 H7         10.6969   -3.2487   -0.9721 H       1  NONAME1     0.0271
     24 H8          9.2980   -2.9853   -2.0357 H       1  NONAME1     0.0271
     25 H9          8.6006   -4.3123    2.0208 H       1  NONAME1     0.0271
     26 H10        10.2741   -4.0487    1.4856 H       1  NONAME1     0.0271
     27 H11         9.3144   -5.3987    0.8422 H       1  NONAME1     0.0271
     28 H12         0.4668   -1.2382    0.0267 H       1  NONAME1     0.0309
     29 H13         1.1771   -2.7963    0.4710 H       1  NONAME1     0.0309
     30 H14         1.2951   -2.1839   -1.2196 H       1  NONAME1     0.0309
@<TRIPOS>BOND
     1     1     2   ar
     2     2     3   ar
     3     3     4   ar
     4     4     5   ar
     5     5     6   ar
     6     1     6   ar
     7     8     9    1
     8     9    10    1
     9     7    10    2
    10     4     8    1
    11     7     5    1
    12     1    11    1
    13     6    12    1
    14     9    13    1
    15     9    14    1
    16    11    15    1
    17    11    16    2
    18     2    17    1
    19     3    18    1
    20     7    19    1
    21    10    20    1
    22    12    21    1
    23    13    22    1
    24    13    23    1
    25    13    24    1
    26    14    25    1
    27    14    26    1
    28    14    27    1
    29    15    28    1
    30    15    29    1
    31    15    30    1
