@<TRIPOS>MOLECULE
*****
 31 32 0 0 0
SMALL
USER_CHARGES

@<TRIPOS>ATOM
      1 C1          3.2885   -3.0850   -0.1994 C.ar    1  NONAME1     0.1380
      2 C2          2.1629   -3.8275    0.2055 C.ar    1  NONAME1     0.0619
      3 C3          2.3424   -5.0994    0.7637 C.ar    1  NONAME1    -0.0442
      4 C4          3.6284   -5.6241    0.9038 C.ar    1  NONAME1    -0.0184
      5 C5          4.7384   -4.8983    0.4692 C.ar    1  NONAME1     0.1324
      6 C6          4.5810   -3.6256   -0.0873 C.ar    1  NONAME1     0.0586
      7 C7          5.7662   -2.9007   -0.5310 C.2     1  NONAME1    -0.0478
      8 O1          5.9494   -5.5048    0.6568 O.3     1  NONAME1    -0.4815
      9 C8          7.1041   -4.9513   -0.0098 C.3     1  NONAME1     0.1235
     10 C9          6.9424   -3.5337   -0.5046 C.2     1  NONAME1    -0.0408
     11 O2          3.1648   -1.8197   -0.7270 O.3     1  NONAME1    -0.5054
     12 C10         7.4300   -5.8812   -1.1846 C.3     1  NONAME1    -0.0215
     13 C11         8.2452   -4.9947    1.0138 C.3     1  NONAME1    -0.0215
     14 H1          8.0247   -4.3489    1.8724 H       1  NONAME1     0.0271
     15 C12         0.7982   -3.2575    0.0306 C.2     1  NONAME1     0.1918
     16 C13        -0.4067   -4.1883    0.0402 C.3     1  NONAME1     0.1070
     17 O3          0.6677   -2.0419   -0.1383 O.2     1  NONAME1    -0.2895
     18 O4         -1.5827   -3.5087   -0.3790 O.3     1  NONAME1    -0.3872
     19 H2          1.5069   -5.7005    1.1104 H       1  NONAME1     0.0627
     20 H3          3.7710   -6.6074    1.3467 H       1  NONAME1     0.0654
     21 H4          5.6660   -1.8856   -0.8992 H       1  NONAME1     0.0624
     22 H5          7.8278   -3.0184   -0.8676 H       1  NONAME1     0.0611
     23 H6          2.2336   -1.5236   -0.6190 H       1  NONAME1     0.2922
     24 H7          6.5950   -5.9238   -1.8942 H       1  NONAME1     0.0271
     25 H8          8.3261   -5.5604   -1.7267 H       1  NONAME1     0.0271
     26 H9          7.5876   -6.9085   -0.8351 H       1  NONAME1     0.0271
     27 H10         8.3736   -6.0070    1.4145 H       1  NONAME1     0.0271
     28 H11         9.1983   -4.6737    0.5788 H       1  NONAME1     0.0271
     29 H12        -0.2403   -5.0201   -0.6497 H       1  NONAME1     0.0640
     30 H13        -0.5762   -4.5600    1.0537 H       1  NONAME1     0.0640
     31 H14        -1.4307   -2.5583   -0.2027 H       1  NONAME1     0.2100
@<TRIPOS>BOND
     1     1     2   ar
     2     2     3   ar
     3     3     4   ar
     4     4     5   ar
     5     5     6   ar
     6     1     6   ar
     7     8     9    1
     8     9    10    1
     9     7    10    2
    10     5     8    1
    11     7     6    1
    12     1    11    1
    13     9    12    1
    14     9    13    1
    15    13    14    1
    16     2    15    1
    17    15    16    1
    18    15    17    2
    19    16    18    1
    20     3    19    1
    21     4    20    1
    22     7    21    1
    23    10    22    1
    24    11    23    1
    25    12    24    1
    26    12    25    1
    27    12    26    1
    28    13    27    1
    29    13    28    1
    30    16    29    1
    31    16    30    1
    32    18    31    1
