@<TRIPOS>MOLECULE
*****
 31 32 0 0 0
SMALL
USER_CHARGES

@<TRIPOS>ATOM
      1 C1          3.4563   -3.0360    0.2662 C.ar    1  NONAME1     0.1379
      2 C2          2.3330   -3.7488   -0.2040 C.ar    1  NONAME1     0.0593
      3 C3          2.5293   -4.9828   -0.8381 C.ar    1  NONAME1    -0.0443
      4 C4          3.8201   -5.4930   -1.0005 C.ar    1  NONAME1    -0.0184
      5 C5          4.9207   -4.7961   -0.5037 C.ar    1  NONAME1     0.1325
      6 C6          4.7527   -3.5637    0.1337 C.ar    1  NONAME1     0.0586
      7 C7          5.9342   -2.8704    0.6404 C.2     1  NONAME1    -0.0477
      8 O1          6.1423   -5.3783   -0.7096 O.3     1  NONAME1    -0.4789
      9 C8          7.2340   -4.9498    0.1368 C.3     1  NONAME1     0.1491
     10 C9          7.0952   -3.5335    0.6588 C.2     1  NONAME1    -0.0383
     11 O2          3.3292   -1.8120    0.8846 O.3     1  NONAME1    -0.5054
     12 C10         7.2989   -5.9287    1.3191 C.3     1  NONAME1    -0.0190
     13 C11         8.5370   -5.0938   -0.6976 C.3     1  NONAME1     0.0873
     14 O3          8.6019   -4.2155   -1.8250 O.3     1  NONAME1    -0.3907
     15 C12         0.9629   -3.1818   -0.0131 C.2     1  NONAME1     0.1636
     16 C13        -0.2553   -4.0472   -0.2029 C.3     1  NONAME1    -0.0013
     17 O4          0.8536   -2.0121    0.3629 O.2     1  NONAME1    -0.2922
     18 H1         -1.1340   -3.4013   -0.3022 H       1  NONAME1     0.0309
     19 H2          1.7048   -5.5704   -1.2284 H       1  NONAME1     0.0627
     20 H3          3.9704   -6.4442   -1.5063 H       1  NONAME1     0.0654
     21 H4          5.8346   -1.8634    1.0306 H       1  NONAME1     0.0624
     22 H5          7.9732   -3.0570    1.0864 H       1  NONAME1     0.0612
     23 H6          2.3861   -1.5355    0.8316 H       1  NONAME1     0.2922
     24 H7          6.3751   -5.8988    1.9094 H       1  NONAME1     0.0272
     25 H8          8.1386   -5.7083    1.9870 H       1  NONAME1     0.0272
     26 H9          7.4008   -6.9606    0.9628 H       1  NONAME1     0.0272
     27 H10         8.6165   -6.1106   -1.0980 H       1  NONAME1     0.0600
     28 H11         9.4226   -4.9041   -0.0805 H       1  NONAME1     0.0600
     29 H12         8.2746   -3.3430   -1.5459 H       1  NONAME1     0.2096
     30 H13        -0.2004   -4.6436   -1.1144 H       1  NONAME1     0.0309
     31 H14        -0.3877   -4.6884    0.6725 H       1  NONAME1     0.0309
@<TRIPOS>BOND
     1     1     2   ar
     2     2     3   ar
     3     3     4   ar
     4     4     5   ar
     5     5     6   ar
     6     1     6   ar
     7     8     9    1
     8     9    10    1
     9     7    10    2
    10     5     8    1
    11     7     6    1
    12     1    11    1
    13     9    12    1
    14     9    13    1
    15    13    14    1
    16     2    15    1
    17    15    16    1
    18    15    17    2
    19    16    18    1
    20     3    19    1
    21     4    20    1
    22     7    21    1
    23    10    22    1
    24    11    23    1
    25    12    24    1
    26    12    25    1
    27    12    26    1
    28    13    27    1
    29    13    28    1
    30    14    29    1
    31    16    30    1
    32    16    31    1
