@<TRIPOS>MOLECULE
*****
 58 59 0 0 0
SMALL
USER_CHARGES

@<TRIPOS>ATOM
      1 C1         -0.8776    5.9137   -0.4753 C.2     1  NONAME1    -0.0777
      2 C2          0.2482    4.9608   -0.8283 C.3     1  NONAME1    -0.0220
      3 C3          1.6358    5.6038   -1.0555 C.3     1  NONAME1    -0.0089
      4 C4          2.5997    5.6503    0.1401 C.3     1  NONAME1     0.1144
      5 C5          3.7023    6.7152    0.0116 C.3     1  NONAME1     0.0680
      6 C6          3.5873    8.1071    0.7440 C.3     1  NONAME1     0.1535
      7 C7          2.3812    9.1339    0.8457 C.3     1  NONAME1     0.1757
      8 C8          0.9912    8.9151    0.2009 C.3     1  NONAME1     0.1647
      9 C9          0.3308    7.6733    0.8042 C.2     1  NONAME1     0.1906
     10 C10        -0.8674    7.0964    0.1566 C.2     1  NONAME1    -0.0198
     11 C11         1.0089    9.0668   -1.3189 C.3     1  NONAME1    -0.0251
     12 O1          0.6908    7.2042    1.8850 O.2     1  NONAME1    -0.2895
     13 O2          0.1247    9.9836    0.6915 O.3     1  NONAME1    -0.3772
     14 O3          2.8342   10.4633    0.3957 O.3     1  NONAME1    -0.4544
     15 O4          3.2508    4.3573    0.0997 O.3     1  NONAME1    -0.4573
     16 O5          4.8170    8.8789    0.4730 O.3     1  NONAME1    -0.4535
     17 C12         4.8716    5.8890    0.5282 C.2     1  NONAME1     0.0397
     18 C13         4.5712    4.4556    0.3523 C.2     1  NONAME1     0.3354
     19 O6          5.3522    3.5270    0.4301 O.2     1  NONAME1    -0.2453
     20 C14         6.0073    6.2117    1.1645 C.2     1  NONAME1    -0.0882
     21 C15         0.2436    3.7535    0.1084 C.3     1  NONAME1    -0.0588
     22 C16         2.7006   11.6198    1.0833 C.2     1  NONAME1     0.3044
     23 C17         2.3809   11.5339    2.5435 C.3     1  NONAME1     0.0332
     24 O7          2.8852   12.7001    0.5286 O.2     1  NONAME1    -0.2512
     25 C18         5.0374    9.2994   -0.8011 C.2     1  NONAME1     0.3350
     26 O8          4.3197    9.0775   -1.7625 O.2     1  NONAME1    -0.2453
     27 C19         6.3143   10.0519   -0.8531 C.2     1  NONAME1     0.0293
     28 C20         7.5302    9.3208   -0.3748 C.3     1  NONAME1    -0.0333
     29 C21         6.3677   11.3027   -1.3481 C.2     1  NONAME1    -0.0774
     30 C22         5.2336   12.1379   -1.8540 C.3     1  NONAME1    -0.0461
     31 H1         -1.8546    5.5682   -0.8213 H       1  NONAME1     0.0576
     32 H2         -0.0379    4.5766   -1.8198 H       1  NONAME1     0.0342
     33 H3          2.1206    5.0213   -1.8539 H       1  NONAME1     0.0307
     34 H4          1.4944    6.5868   -1.4903 H       1  NONAME1     0.0307
     35 H5          2.1045    5.6936    1.1065 H       1  NONAME1     0.0741
     36 H6          3.9005    6.8723   -1.0540 H       1  NONAME1     0.0424
     37 H7          3.7180    7.8277    1.8012 H       1  NONAME1     0.0780
     38 H8          2.2005    9.2157    1.9234 H       1  NONAME1     0.0806
     39 H9         -1.7861    7.6519    0.3136 H       1  NONAME1     0.0650
     40 H10         1.1037   10.1216   -1.6051 H       1  NONAME1     0.0263
     41 H11         1.8380    8.5340   -1.7844 H       1  NONAME1     0.0263
     42 H12         0.0788    8.7159   -1.7773 H       1  NONAME1     0.0263
     43 H13        -0.6378   10.0692    0.0922 H       1  NONAME1     0.2109
     44 H14         6.7058    5.4417    1.4887 H       1  NONAME1     0.0540
     45 H15         6.2867    7.2289    1.4017 H       1  NONAME1     0.0540
     46 H16         0.4719    4.0348    1.1414 H       1  NONAME1     0.0235
     47 H17        -0.7390    3.2673    0.1123 H       1  NONAME1     0.0235
     48 H18         0.9728    3.0047   -0.2176 H       1  NONAME1     0.0235
     49 H19         1.3695   11.1564    2.7027 H       1  NONAME1     0.0342
     50 H20         3.1254   10.9203    3.0565 H       1  NONAME1     0.0342
     51 H21         2.4325   12.5389    2.9749 H       1  NONAME1     0.0342
     52 H22         7.5742    8.3191   -0.8153 H       1  NONAME1     0.0280
     53 H23         8.4541    9.8387   -0.6536 H       1  NONAME1     0.0280
     54 H24         7.5194    9.2251    0.7153 H       1  NONAME1     0.0280
     55 H25         7.3342   11.8033   -1.3824 H       1  NONAME1     0.0574
     56 H26         5.4174   12.4135   -2.8970 H       1  NONAME1     0.0272
     57 H27         5.1690   13.0591   -1.2663 H       1  NONAME1     0.0272
     58 H28         4.2639   11.6394   -1.8033 H       1  NONAME1     0.0272
@<TRIPOS>BOND
     1     1     2    1
     2     2     3    1
     3     3     4    1
     4     4     5    1
     5     5     6    1
     6     6     7    1
     7     7     8    1
     8     8     9    1
     9     9    10    1
    10    10     1    2
    11     8    11    1
    12     9    12    2
    13     8    13    1
    14     7    14    1
    15     4    15    1
    16     6    16    1
    17     5    17    1
    18    17    18    1
    19    15    18    1
    20    18    19    2
    21    17    20    2
    22     2    21    1
    23    14    22    1
    24    22    23    1
    25    22    24    2
    26    16    25    1
    27    25    26    2
    28    25    27    1
    29    27    28    1
    30    27    29    2
    31    29    30    1
    32     1    31    1
    33     2    32    1
    34     3    33    1
    35     3    34    1
    36     4    35    1
    37     5    36    1
    38     6    37    1
    39     7    38    1
    40    10    39    1
    41    11    40    1
    42    11    41    1
    43    11    42    1
    44    13    43    1
    45    20    44    1
    46    20    45    1
    47    21    46    1
    48    21    47    1
    49    21    48    1
    50    23    49    1
    51    23    50    1
    52    23    51    1
    53    28    52    1
    54    28    53    1
    55    28    54    1
    56    29    55    1
    57    30    56    1
    58    30    57    1
    59    30    58    1
