@<TRIPOS>MOLECULE
*****
 58 59 0 0 0
SMALL
USER_CHARGES

@<TRIPOS>ATOM
      1 C          -1.0446    6.6663    0.6714 C.2     1  NONAME1    -0.0777
      2 C           0.0355    5.6014    0.7718 C.3     1  NONAME1    -0.0220
      3 C           1.5048    5.9959    0.4962 C.3     1  NONAME1    -0.0089
      4 C           1.9568    7.2297    1.3024 C.3     1  NONAME1     0.1144
      5 C           2.7218    8.2493    0.4594 C.3     1  NONAME1     0.0680
      6 C           2.3692    9.7372    0.7256 C.3     1  NONAME1     0.1535
      7 C           0.8869   10.1546    0.4405 C.3     1  NONAME1     0.1757
      8 C           0.3228    9.7812   -0.9672 C.3     1  NONAME1     0.1647
      9 C          -0.1494    8.3040   -1.0270 C.2     1  NONAME1     0.1906
     10 C          -1.1351    7.8088   -0.0296 C.2     1  NONAME1    -0.0198
     11 C          -0.8499   10.6657   -1.4059 C.3     1  NONAME1    -0.0251
     12 O           0.2367    7.5565   -1.9277 O.2     1  NONAME1    -0.2895
     13 O           1.3515    9.9359   -1.9548 O.3     1  NONAME1    -0.3772
     14 O           0.6538   11.5595    0.7846 O.3     1  NONAME1    -0.4544
     15 O           2.8458    6.8051    2.3515 O.3     1  NONAME1    -0.4573
     16 O           2.8606   10.1912    2.0257 O.3     1  NONAME1    -0.4535
     17 C           4.1306    7.9061    0.8115 C.2     1  NONAME1     0.0397
     18 C           4.1359    7.1064    2.0515 C.2     1  NONAME1     0.3354
     19 O           5.1107    6.7820    2.7024 O.2     1  NONAME1    -0.2453
     20 C           5.2489    8.2129    0.1433 C.2     1  NONAME1    -0.0882
     21 C          -0.3585    4.4018   -0.0951 C.3     1  NONAME1    -0.0588
     22 C           1.3900   12.5526    0.2225 C.2     1  NONAME1     0.3044
     23 C           0.9699   13.8726    0.7938 C.3     1  NONAME1     0.0332
     24 O           2.2615   12.4194   -0.6199 O.2     1  NONAME1    -0.2512
     25 C           2.1751   10.0220    3.1771 C.2     1  NONAME1     0.3350
     26 O           1.0763    9.5004    3.2824 O.2     1  NONAME1    -0.2453
     27 C           2.9539   10.5243    4.3529 C.2     1  NONAME1     0.0293
     28 C           2.4421   10.0112    5.6677 C.3     1  NONAME1    -0.0333
     29 C           4.0045   11.3540    4.1855 C.2     1  NONAME1    -0.0774
     30 C           4.8721   11.9564    5.2447 C.3     1  NONAME1    -0.0461
     31 H          -1.8932    6.4531    1.3270 H       1  NONAME1     0.0576
     32 H           0.0132    5.2627    1.8180 H       1  NONAME1     0.0342
     33 H           2.1406    5.1374    0.7524 H       1  NONAME1     0.0307
     34 H           1.6394    6.1446   -0.5786 H       1  NONAME1     0.0307
     35 H           1.0981    7.6791    1.7953 H       1  NONAME1     0.0741
     36 H           2.5698    8.0616   -0.6080 H       1  NONAME1     0.0424
     37 H           3.0015   10.3029    0.0335 H       1  NONAME1     0.0780
     38 H           0.2470    9.6525    1.1663 H       1  NONAME1     0.0806
     39 H          -2.0033    8.4462    0.1121 H       1  NONAME1     0.0650
     40 H          -0.5198   11.6829   -1.6414 H       1  NONAME1     0.0263
     41 H          -1.6311   10.7185   -0.6409 H       1  NONAME1     0.0263
     42 H          -1.3072   10.2772   -2.3240 H       1  NONAME1     0.0263
     43 H           1.1115    9.3657   -2.7136 H       1  NONAME1     0.2109
     44 H           6.2234    7.8931    0.5038 H       1  NONAME1     0.0540
     45 H           5.2190    8.7947   -0.7725 H       1  NONAME1     0.0540
     46 H          -1.3622    4.0421    0.1583 H       1  NONAME1     0.0235
     47 H          -0.3524    4.6608   -1.1598 H       1  NONAME1     0.0235
     48 H           0.3376    3.5692    0.0534 H       1  NONAME1     0.0235
     49 H          -0.0835   14.0559    0.5677 H       1  NONAME1     0.0342
     50 H           1.1397   13.8795    1.8735 H       1  NONAME1     0.0342
     51 H           1.5673   14.6699    0.3425 H       1  NONAME1     0.0342
     52 H           2.3333    8.9213    5.6352 H       1  NONAME1     0.0280
     53 H           1.4639   10.4496    5.8916 H       1  NONAME1     0.0280
     54 H           3.1063   10.2315    6.5062 H       1  NONAME1     0.0280
     55 H           4.2921   11.6569    3.1789 H       1  NONAME1     0.0574
     56 H           4.5318   11.7542    6.2617 H       1  NONAME1     0.0272
     57 H           4.8980   13.0438    5.1191 H       1  NONAME1     0.0272
     58 H           5.8943   11.5790    5.1440 H       1  NONAME1     0.0272
@<TRIPOS>BOND
     1     1     2    1
     2     2     3    1
     3     3     4    1
     4     4     5    1
     5     5     6    1
     6     6     7    1
     7     7     8    1
     8     8     9    1
     9     9    10    1
    10    10     1    2
    11     8    11    1
    12     9    12    2
    13     8    13    1
    14     7    14    1
    15     4    15    1
    16     6    16    1
    17     5    17    1
    18    17    18    1
    19    15    18    1
    20    18    19    2
    21    17    20    2
    22     2    21    1
    23    14    22    1
    24    22    23    1
    25    22    24    2
    26    16    25    1
    27    25    26    2
    28    25    27    1
    29    27    28    1
    30    27    29    2
    31    29    30    1
    32     1    31    1
    33     2    32    1
    34     3    33    1
    35     3    34    1
    36     4    35    1
    37     5    36    1
    38     6    37    1
    39     7    38    1
    40    10    39    1
    41    11    40    1
    42    11    41    1
    43    11    42    1
    44    13    43    1
    45    20    44    1
    46    20    45    1
    47    21    46    1
    48    21    47    1
    49    21    48    1
    50    23    49    1
    51    23    50    1
    52    23    51    1
    53    28    52    1
    54    28    53    1
    55    28    54    1
    56    29    55    1
    57    30    56    1
    58    30    57    1
    59    30    58    1
