@<TRIPOS>MOLECULE
*****
 34 36 0 0 0
SMALL
USER_CHARGES

@<TRIPOS>ATOM
      1 C1          3.4228   -4.5386    0.1125 C.ar    1  NONAME1     0.1465
      2 C2          2.2963   -3.7219    0.2246 C.ar    1  NONAME1     0.0231
      3 C3          1.0293   -4.2895    0.1839 C.ar    1  NONAME1     0.1239
      4 C4          0.8671   -5.6641    0.0440 C.ar    1  NONAME1     0.0223
      5 C5          1.9994   -6.4777   -0.0662 C.ar    1  NONAME1     0.1348
      6 C6          3.2842   -5.9167   -0.0396 C.ar    1  NONAME1     0.1092
      7 C7          4.5194   -6.7097   -0.1801 C.ar    1  NONAME1     0.2379
      8 C8          5.8071   -5.9647   -0.2022 C.ar    1  NONAME1     0.2082
      9 C9          5.8045   -4.6300   -0.0244 C.ar    1  NONAME1     0.1806
     10 O1          4.6343   -3.9008    0.1621 O.2     1  NONAME1    -0.4507
     11 C10         9.3881   -3.3627    0.4133 C.ar    1  NONAME1    -0.0193
     12 C11         9.2582   -2.0178    0.0724 C.ar    1  NONAME1     0.1201
     13 C12         8.0122   -1.5417   -0.3233 C.ar    1  NONAME1    -0.0193
     14 C13         6.9090   -2.4068   -0.3664 C.ar    1  NONAME1    -0.0475
     15 C14         7.0180   -3.7648   -0.0137 C.ar    1  NONAME1     0.0213
     16 C15         8.2814   -4.2213    0.3858 C.ar    1  NONAME1    -0.0475
     17 O2         -0.0406   -3.4510    0.2837 O.3     1  NONAME1    -0.5065
     18 H1         -0.1268   -6.0978    0.0165 H       1  NONAME1     0.0691
     19 O3          1.8309   -7.8256   -0.2059 O.3     1  NONAME1    -0.5058
     20 O4          4.5677   -7.9305   -0.2946 O.2     1  NONAME1    -0.2830
     21 H2          7.8591   -0.5067   -0.6092 H       1  NONAME1     0.0654
     22 H3         -0.8630   -3.9644    0.2207 H       1  NONAME1     0.2921
     23 O5          6.9381   -6.7310   -0.4220 O.3     1  NONAME1    -0.5007
     24 H4          6.5991   -7.6499   -0.5034 H       1  NONAME1     0.2924
     25 O6         10.4090   -1.2855    0.1598 O.3     1  NONAME1    -0.4951
     26 C16        10.2743    0.1268    0.0606 C.3     1  NONAME1     0.0788
     27 H5          2.4067   -2.6467    0.3379 H       1  NONAME1     0.0691
     28 H6         10.3575   -3.7500    0.7179 H       1  NONAME1     0.0654
     29 H7          5.9525   -1.9950   -0.6832 H       1  NONAME1     0.0626
     30 H8          8.4352   -5.2522    0.6935 H       1  NONAME1     0.0626
     31 H9          0.8911   -8.0625   -0.1680 H       1  NONAME1     0.2922
     32 H10        11.2581    0.5699    0.2432 H       1  NONAME1     0.0660
     33 H11         9.9573    0.4230   -0.9444 H       1  NONAME1     0.0660
     34 H12         9.5885    0.5139    0.8219 H       1  NONAME1     0.0660
@<TRIPOS>BOND
     1     1     2   ar
     2     2     3   ar
     3     3     4   ar
     4     4     5   ar
     5     5     6   ar
     6     7     8   ar
     7     8     9   ar
     8     9    10   ar
     9     1     6   ar
    10     1    10   ar
    11     6     7   ar
    12    11    12   ar
    13    12    13   ar
    14    13    14   ar
    15    14    15   ar
    16    15    16   ar
    17    11    16   ar
    18     9    15    1
    19     3    17    1
    20     4    18    1
    21     5    19    1
    22     7    20    2
    23    13    21    1
    24    22    17    1
    25     8    23    1
    26    23    24    1
    27    12    25    1
    28    25    26    1
    29     2    27    1
    30    11    28    1
    31    14    29    1
    32    16    30    1
    33    19    31    1
    34    26    32    1
    35    26    33    1
    36    26    34    1
