@<TRIPOS>MOLECULE
*****
 33 35 0 0 0
SMALL
USER_CHARGES

@<TRIPOS>ATOM
      1 C           2.0738    0.6110    1.0370 C.ar    1  NONAME1     0.0231
      2 C           0.9731   -0.2176    1.2123 C.ar    1  NONAME1     0.1239
      3 C           1.0444   -1.3335    2.0389 C.ar    1  NONAME1     0.0223
      4 C           2.2382   -1.6279    2.7029 C.ar    1  NONAME1     0.1347
      5 C           3.3605   -0.8047    2.5393 C.ar    1  NONAME1     0.1055
      6 C           3.2661    0.3127    1.7032 C.ar    1  NONAME1     0.1462
      7 O           4.3074    1.1799    1.4777 O.2     1  NONAME1    -0.4544
      8 C           4.6575   -1.0547    3.2099 C.ar    1  NONAME1     0.1966
      9 C           5.7405   -0.0962    2.9245 C.ar    1  NONAME1     0.0288
     10 C           5.5195    0.9305    2.0942 C.ar    1  NONAME1     0.1392
     11 C           7.2497    4.2271    1.4435 C.ar    1  NONAME1    -0.0193
     12 C           6.2647    3.2832    1.7505 C.ar    1  NONAME1    -0.0476
     13 C           6.5710    1.9170    1.7826 C.ar    1  NONAME1     0.0176
     14 C           7.8835    1.5223    1.4846 C.ar    1  NONAME1    -0.0476
     15 C           8.8692    2.4695    1.1758 C.ar    1  NONAME1    -0.0193
     16 C           8.5555    3.8274    1.1557 C.ar    1  NONAME1     0.1201
     17 O          -0.2112    0.0295    0.5844 O.3     1  NONAME1    -0.5065
     18 O           2.2855   -2.7292    3.5083 O.3     1  NONAME1    -0.5058
     19 O           4.8832   -1.9884    3.9674 O.2     1  NONAME1    -0.2869
     20 O           9.4172    4.8498    0.8709 O.3     1  NONAME1    -0.4951
     21 C          10.7611    4.4940    0.5718 C.3     1  NONAME1     0.0788
     22 H           2.0262    1.4835    0.3928 H       1  NONAME1     0.0691
     23 H           0.1653   -1.9605    2.1537 H       1  NONAME1     0.0691
     24 H           6.6831   -0.2764    3.4255 H       1  NONAME1     0.0693
     25 H           6.9951    5.2842    1.4285 H       1  NONAME1     0.0654
     26 H           5.2575    3.6294    1.9720 H       1  NONAME1     0.0626
     27 H           8.1560    0.4688    1.4754 H       1  NONAME1     0.0626
     28 H           9.8680    2.1097    0.9524 H       1  NONAME1     0.0654
     29 H          -0.1226    0.8289    0.0383 H       1  NONAME1     0.2921
     30 H           1.4271   -3.1817    3.5117 H       1  NONAME1     0.2922
     31 H          10.8138    3.8727   -0.3283 H       1  NONAME1     0.0660
     32 H          11.2373    3.9978    1.4240 H       1  NONAME1     0.0660
     33 H          11.3146    5.4166    0.3721 H       1  NONAME1     0.0660
@<TRIPOS>BOND
     1     1     2   ar
     2     2     3   ar
     3     3     4   ar
     4     4     5   ar
     5     1     6   ar
     6     8     9   ar
     7     9    10   ar
     8     7    10   ar
     9     5     8   ar
    10     7     6   ar
    11     6     5   ar
    12    11    12   ar
    13    12    13   ar
    14    13    14   ar
    15    14    15   ar
    16    15    16   ar
    17    11    16   ar
    18    10    13    1
    19     2    17    1
    20     4    18    1
    21     8    19    2
    22    16    20    1
    23    20    21    1
    24     1    22    1
    25     3    23    1
    26     9    24    1
    27    11    25    1
    28    12    26    1
    29    14    27    1
    30    15    28    1
    31    17    29    1
    32    18    30    1
    33    21    31    1
    34    21    32    1
    35    21    33    1
