@<TRIPOS>MOLECULE
*****
 30 32 0 0 0
SMALL
USER_CHARGES

@<TRIPOS>ATOM
      1 C1          3.2380   -4.5648    0.0000 C.ar    1  NONAME1     0.1462
      2 C2          2.0947   -3.7635    0.0000 C.ar    1  NONAME1     0.0231
      3 C3          0.8394   -4.3577   -0.0000 C.ar    1  NONAME1     0.1239
      4 C4          0.7050   -5.7424   -0.0000 C.ar    1  NONAME1     0.0223
      5 C5          1.8535   -6.5411   -0.0000 C.ar    1  NONAME1     0.1347
      6 C6          3.1284   -5.9560   -0.0000 C.ar    1  NONAME1     0.1055
      7 C7          4.3831   -6.7374   -0.0000 C.ar    1  NONAME1     0.1966
      8 C8          5.6416   -5.9670   -0.0000 C.ar    1  NONAME1     0.0288
      9 C9          5.6199   -4.6264   -0.0000 C.ar    1  NONAME1     0.1392
     10 O1          4.4373   -3.8988    0.0000 O.2     1  NONAME1    -0.4544
     11 C10         9.2807   -3.4983    0.0000 C.ar    1  NONAME1    -0.0195
     12 C11         9.1332   -2.1201    0.0000 C.ar    1  NONAME1     0.1169
     13 C12         7.8696   -1.5488   -0.0000 C.ar    1  NONAME1    -0.0195
     14 C13         6.7399   -2.3764   -0.0000 C.ar    1  NONAME1    -0.0476
     15 C14         6.8499   -3.7817   -0.0000 C.ar    1  NONAME1     0.0176
     16 C15         8.1485   -4.3222    0.0000 C.ar    1  NONAME1    -0.0476
     17 O2         -0.2479   -3.5356    0.0000 O.3     1  NONAME1    -0.5065
     18 H1         -0.2800   -6.1966   -0.0000 H       1  NONAME1     0.0691
     19 O3          1.7084   -7.8991   -0.0000 O.3     1  NONAME1    -0.5058
     20 O4          4.4406   -7.9597   -0.0000 O.2     1  NONAME1    -0.2869
     21 H2          7.7368   -0.4716   -0.0000 H       1  NONAME1     0.0654
     22 H3         -1.0586   -4.0710   -0.0000 H       1  NONAME1     0.2921
     23 H4          6.5371   -6.5717   -0.0000 H       1  NONAME1     0.0693
     24 O5         10.2619   -1.3576    0.0000 O.3     1  NONAME1    -0.5068
     25 H5         10.0046   -0.4211    0.0000 H       1  NONAME1     0.2921
     26 H6          2.1829   -2.6806    0.0000 H       1  NONAME1     0.0691
     27 H7         10.2746   -3.9376    0.0000 H       1  NONAME1     0.0654
     28 H8          5.7632   -1.8962   -0.0000 H       1  NONAME1     0.0626
     29 H9          8.3211   -5.3944    0.0000 H       1  NONAME1     0.0626
     30 H10         0.7716   -8.1486   -0.0000 H       1  NONAME1     0.2922
@<TRIPOS>BOND
     1     1     2   ar
     2     2     3   ar
     3     3     4   ar
     4     4     5   ar
     5     5     6   ar
     6     7     8   ar
     7     8     9   ar
     8     9    10   ar
     9     1     6   ar
    10     1    10   ar
    11     6     7   ar
    12    11    12   ar
    13    12    13   ar
    14    13    14   ar
    15    14    15   ar
    16    15    16   ar
    17    11    16   ar
    18     9    15    1
    19     3    17    1
    20     4    18    1
    21     5    19    1
    22     7    20    2
    23    13    21    1
    24    22    17    1
    25     8    23    1
    26    12    24    1
    27    24    25    1
    28     2    26    1
    29    11    27    1
    30    14    28    1
    31    16    29    1
    32    19    30    1
