@<TRIPOS>MOLECULE
*****
 87 90 0 0 0
SMALL
USER_CHARGES

@<TRIPOS>ATOM
      1 C1         -6.6451   -5.4078    0.4623 C.3     1  NONAME1     0.0147
      2 C2         -5.4774   -4.4194    0.1920 C.2     1  NONAME1    -0.0612
      3 C3         -5.8381   -2.9363   -0.0403 C.3     1  NONAME1    -0.0045
      4 C4         -7.0612   -2.8048   -0.9738 C.3     1  NONAME1    -0.0170
      5 C5         -8.2406   -3.6263   -0.4823 C.3     1  NONAME1     0.0824
      6 C6         -7.8604   -5.1095   -0.4604 C.3     1  NONAME1     0.0898
      7 C7         -4.6052   -2.0680   -0.5388 C.3     1  NONAME1     0.0364
      8 C8         -4.1836   -4.8026    0.2392 C.2     1  NONAME1    -0.0836
      9 C9         -3.0002   -3.8796    0.1799 C.3     1  NONAME1    -0.0302
     10 C10        -3.3933   -2.4040    0.3859 C.3     1  NONAME1    -0.0190
     11 C11        -3.7093    0.3407   -0.6545 C.3     1  NONAME1     0.0127
     12 C12        -4.8665   -0.5770   -0.3391 C.2     1  NONAME1     0.1406
     13 C13        -2.1506   -1.4233    0.4289 C.3     1  NONAME1    -0.0195
     14 C14        -2.5126    0.1135    0.3081 C.3     1  NONAME1    -0.0117
     15 C15        -1.2400    0.7885   -0.3798 C.3     1  NONAME1     0.0242
     16 C16        -1.1366   -1.6249   -0.7206 C.3     1  NONAME1    -0.0203
     17 C17        -0.2678   -0.3688   -0.7215 C.3     1  NONAME1     0.0619
     18 C18        -0.6317    2.0402    0.2910 C.3     1  NONAME1     0.1186
     19 C19         0.3417    2.7775   -0.6483 C.2     1  NONAME1     0.1620
     20 C20         0.7000    4.2070   -0.2937 C.3     1  NONAME1     0.0120
     21 C21         2.1698    4.3329    0.1114 C.3     1  NONAME1    -0.0066
     22 C22         2.8855    5.6327   -0.3486 C.3     1  NONAME1     0.1084
     23 O1          4.1770    5.5781    0.3286 O.3     1  NONAME1    -0.4588
     24 O2          0.8015   -0.5588    0.1873 O.3     1  NONAME1    -0.3914
     25 C23        -7.0374   -5.2768    1.9528 C.3     1  NONAME1    -0.0536
     26 C24        -6.2616   -6.8938    0.2307 C.3     1  NONAME1    -0.0536
     27 O3         -9.0202   -5.8584   -0.0678 O.3     1  NONAME1    -0.3884
     28 O4         -9.3499   -3.4658   -1.3794 O.3     1  NONAME1    -0.3892
     29 C25        -4.3610   -2.3193   -2.0440 C.3     1  NONAME1    -0.0520
     30 H1         -3.8119   -2.3392    1.4049 H       1  NONAME1     0.0319
     31 O5          0.0346    1.7257    1.5016 O.3     1  NONAME1    -0.3839
     32 O6          0.8308    2.2499   -1.6480 O.2     1  NONAME1    -0.2946
     33 C26         2.0972    6.8686    0.1065 C.3     1  NONAME1    -0.0251
     34 C27         3.0858    5.6028   -1.8714 C.3     1  NONAME1    -0.0251
     35 O7         -5.9405   -0.1193    0.0474 O.2     1  NONAME1    -0.2968
     36 H2         -1.4457    2.7427    0.5052 H       1  NONAME1     0.0676
     37 H3         -1.5834    1.1489   -1.3616 H       1  NONAME1     0.0361
     38 C28        -1.4081   -1.7165    1.7749 C.3     1  NONAME1    -0.0587
     39 H4         -6.1449   -2.5456    0.9417 H       1  NONAME1     0.0356
     40 C29        -2.9226    0.7378    1.6607 C.3     1  NONAME1    -0.0582
     41 C30         5.1054    6.5573    0.1567 C.2     1  NONAME1     0.3044
     42 O8          4.9850    7.5572   -0.5336 O.2     1  NONAME1    -0.2511
     43 C31         6.3291    6.2400    0.9620 C.3     1  NONAME1     0.0333
     44 H5         -6.8232   -3.1349   -1.9925 H       1  NONAME1     0.0297
     45 H6         -7.3747   -1.7603   -1.0727 H       1  NONAME1     0.0297
     46 H7         -8.5862   -3.2913    0.5015 H       1  NONAME1     0.0619
     47 H8         -7.6320   -5.4314   -1.4859 H       1  NONAME1     0.0628
     48 H9         -3.9150   -5.8425    0.4054 H       1  NONAME1     0.0572
     49 H10        -2.4881   -4.0289   -0.7767 H       1  NONAME1     0.0311
     50 H11        -2.3044   -4.1915    0.9660 H       1  NONAME1     0.0311
     51 H12        -4.0605    1.3791   -0.5997 H       1  NONAME1     0.0347
     52 H13        -3.4364    0.1807   -1.7025 H       1  NONAME1     0.0347
     53 H14        -0.5359   -2.5309   -0.5836 H       1  NONAME1     0.0296
     54 H15        -1.6301   -1.7001   -1.6876 H       1  NONAME1     0.0296
     55 H16         0.1766   -0.2306   -1.7127 H       1  NONAME1     0.0597
     56 H17         0.0549    4.5613    0.5174 H       1  NONAME1     0.0344
     57 H18         0.4503    4.8069   -1.1742 H       1  NONAME1     0.0344
     58 H19         2.2311    4.2608    1.2069 H       1  NONAME1     0.0307
     59 H20         2.7515    3.4713   -0.2448 H       1  NONAME1     0.0307
     60 H21         1.2076    0.3080    0.3641 H       1  NONAME1     0.2098
     61 H22        -7.3764   -4.2670    2.2050 H       1  NONAME1     0.0239
     62 H23        -6.1854   -5.5047    2.6050 H       1  NONAME1     0.0239
     63 H24        -7.8413   -5.9719    2.2201 H       1  NONAME1     0.0239
     64 H25        -7.1277   -7.5552    0.3495 H       1  NONAME1     0.0239
     65 H26        -5.8692   -7.0474   -0.7816 H       1  NONAME1     0.0239
     66 H27        -5.5078   -7.2420    0.9456 H       1  NONAME1     0.0239
     67 H28        -9.7479   -5.4816   -0.6030 H       1  NONAME1     0.2099
     68 H29        -9.5882   -2.5211   -1.3662 H       1  NONAME1     0.2099
     69 H30        -5.1474   -1.8561   -2.6516 H       1  NONAME1     0.0239
     70 H31        -3.4341   -1.8853   -2.4114 H       1  NONAME1     0.0239
     71 H32        -4.3351   -3.3853   -2.2903 H       1  NONAME1     0.0239
     72 H33         0.0441    2.5170    2.0681 H       1  NONAME1     0.2104
     73 H34         2.5886    7.8001   -0.1891 H       1  NONAME1     0.0268
     74 H35         2.0151    6.8927    1.1988 H       1  NONAME1     0.0268
     75 H36         1.0896    6.8945   -0.3193 H       1  NONAME1     0.0268
     76 H37         2.1393    5.5143   -2.4121 H       1  NONAME1     0.0268
     77 H38         3.7287    4.7630   -2.1592 H       1  NONAME1     0.0268
     78 H39         3.5775    6.5090   -2.2371 H       1  NONAME1     0.0268
     79 H40        -0.8916   -2.6815    1.7485 H       1  NONAME1     0.0235
     80 H41        -2.1047   -1.7435    2.6208 H       1  NONAME1     0.0235
     81 H42        -0.6577   -0.9619    2.0218 H       1  NONAME1     0.0235
     82 H43        -3.2514    1.7761    1.5401 H       1  NONAME1     0.0235
     83 H44        -2.1111    0.7426    2.3920 H       1  NONAME1     0.0235
     84 H45        -3.7575    0.1889    2.1113 H       1  NONAME1     0.0235
     85 H46         6.7443    5.2801    0.6451 H       1  NONAME1     0.0342
     86 H47         6.0779    6.2204    2.0253 H       1  NONAME1     0.0342
     87 H48         7.0827    7.0153    0.7954 H       1  NONAME1     0.0342
@<TRIPOS>BOND
     1     1     2    1
     2     2     3    1
     3     3     4    1
     4     4     5    1
     5     5     6    1
     6     1     6    1
     7     8     9    1
     8     9    10    1
     9     7    10    1
    10     2     8    2
    11     7     3    1
    12    11    12    1
    13    13    14    1
    14    11    14    1
    15    12     7    1
    16    10    13    1
    17    16    17    1
    18    15    17    1
    19    13    16    1
    20    15    14    1
    21    18    19    1
    22    19    20    1
    23    20    21    1
    24    21    22    1
    25    22    23    1
    26    15    18    1
    27    17    24    1
    28     1    25    1
    29     1    26    1
    30     6    27    1
    31     5    28    1
    32     7    29    1
    33    10    30    1
    34    18    31    1
    35    19    32    2
    36    22    33    1
    37    22    34    1
    38    12    35    2
    39    18    36    1
    40    15    37    1
    41    13    38    1
    42     3    39    1
    43    14    40    1
    44    41    42    2
    45    41    43    1
    46    23    41    1
    47     4    44    1
    48     4    45    1
    49     5    46    1
    50     6    47    1
    51     8    48    1
    52     9    49    1
    53     9    50    1
    54    11    51    1
    55    11    52    1
    56    16    53    1
    57    16    54    1
    58    17    55    1
    59    20    56    1
    60    20    57    1
    61    21    58    1
    62    21    59    1
    63    24    60    1
    64    25    61    1
    65    25    62    1
    66    25    63    1
    67    26    64    1
    68    26    65    1
    69    26    66    1
    70    27    67    1
    71    28    68    1
    72    29    69    1
    73    29    70    1
    74    29    71    1
    75    31    72    1
    76    33    73    1
    77    33    74    1
    78    33    75    1
    79    34    76    1
    80    34    77    1
    81    34    78    1
    82    38    79    1
    83    38    80    1
    84    38    81    1
    85    40    82    1
    86    40    83    1
    87    40    84    1
    88    43    85    1
    89    43    86    1
    90    43    87    1
