@<TRIPOS>MOLECULE
*****
 35 37 0 0 0
SMALL
USER_CHARGES

@<TRIPOS>ATOM
      1 C1          3.3069   -4.5035    0.0761 C.ar    1  NONAME1     0.1465
      2 C2          2.1900   -3.6672    0.1174 C.ar    1  NONAME1     0.0231
      3 C3          0.9156   -4.2193    0.0807 C.ar    1  NONAME1     0.1239
      4 C4          0.7361   -5.5971    0.0130 C.ar    1  NONAME1     0.0223
      5 C5          1.8586   -6.4298   -0.0285 C.ar    1  NONAME1     0.1348
      6 C6          3.1503   -5.8845   -0.0044 C.ar    1  NONAME1     0.1092
      7 C7          4.3756   -6.6978   -0.0737 C.ar    1  NONAME1     0.2379
      8 C8          5.6763   -5.9743   -0.1054 C.ar    1  NONAME1     0.2082
      9 C9          5.6969   -4.6304    0.0020 C.ar    1  NONAME1     0.1807
     10 O1          4.5267   -3.8821    0.1228 O.2     1  NONAME1    -0.4507
     11 C10         9.3418   -3.4252    0.1855 C.ar    1  NONAME1    -0.0159
     12 C11         9.1698   -2.0639    0.0072 C.ar    1  NONAME1     0.1585
     13 C12         7.8983   -1.5146   -0.1478 C.ar    1  NONAME1     0.1619
     14 C13         6.7893   -2.3674   -0.1721 C.ar    1  NONAME1    -0.0055
     15 C14         6.9229   -3.7659    0.0009 C.ar    1  NONAME1     0.0247
     16 C15         8.2229   -4.2649    0.1983 C.ar    1  NONAME1    -0.0473
     17 O2         -0.1439   -3.3625    0.1126 O.3     1  NONAME1    -0.5065
     18 H1         -0.2630   -6.0188   -0.0113 H       1  NONAME1     0.0691
     19 O3          1.6747   -7.7811   -0.0972 O.3     1  NONAME1    -0.5058
     20 O4          4.4084   -7.9241   -0.1217 O.2     1  NONAME1    -0.2830
     21 O5          7.8631   -0.1497   -0.2828 O.3     1  NONAME1    -0.4914
     22 H2         -0.9723   -3.8680    0.0632 H       1  NONAME1     0.2921
     23 O6          6.7901   -6.7802   -0.2535 O.3     1  NONAME1    -0.5007
     24 O7         10.2766   -1.2614    0.0043 O.3     1  NONAME1    -0.5033
     25 H3          9.9334   -0.3600   -0.1501 H       1  NONAME1     0.2923
     26 C16         6.6182    0.4707    0.0228 C.3     1  NONAME1     0.0790
     27 H4          2.3122   -2.5890    0.1735 H       1  NONAME1     0.0691
     28 H5         10.3376   -3.8365    0.3217 H       1  NONAME1     0.0655
     29 H6          5.8026   -1.9470   -0.3380 H       1  NONAME1     0.0662
     30 H7          8.4069   -5.3210    0.3696 H       1  NONAME1     0.0626
     31 H8          0.7311   -8.0045   -0.0691 H       1  NONAME1     0.2922
     32 H9          6.4297   -7.6944   -0.2863 H       1  NONAME1     0.2924
     33 H10         6.7924    1.5486    0.0959 H       1  NONAME1     0.0660
     34 H11         5.8932    0.3026   -0.7795 H       1  NONAME1     0.0660
     35 H12         6.2253    0.1323    0.9881 H       1  NONAME1     0.0660
@<TRIPOS>BOND
     1     1     2   ar
     2     2     3   ar
     3     3     4   ar
     4     4     5   ar
     5     5     6   ar
     6     7     8   ar
     7     8     9   ar
     8     9    10   ar
     9     1     6   ar
    10     1    10   ar
    11     6     7   ar
    12    11    12   ar
    13    12    13   ar
    14    13    14   ar
    15    14    15   ar
    16    15    16   ar
    17    11    16   ar
    18     9    15    1
    19     3    17    1
    20     4    18    1
    21     5    19    1
    22     7    20    2
    23    13    21    1
    24    22    17    1
    25     8    23    1
    26    12    24    1
    27    24    25    1
    28    21    26    1
    29     2    27    1
    30    11    28    1
    31    14    29    1
    32    16    30    1
    33    19    31    1
    34    23    32    1
    35    26    33    1
    36    26    34    1
    37    26    35    1
