@<TRIPOS>MOLECULE
*****
 31 33 0 0 0
SMALL
USER_CHARGES

@<TRIPOS>ATOM
      1 C1          3.2762   -4.5976    0.0000 C.ar    1  NONAME1     0.1465
      2 C2          2.1560   -3.7645    0.0000 C.ar    1  NONAME1     0.0231
      3 C3          0.8838   -4.3224    0.0000 C.ar    1  NONAME1     0.1239
      4 C4          0.7100   -5.7025    0.0000 C.ar    1  NONAME1     0.0223
      5 C5          1.8360   -6.5317    0.0000 C.ar    1  NONAME1     0.1348
      6 C6          3.1255   -5.9808    0.0000 C.ar    1  NONAME1     0.1092
      7 C7          4.3548   -6.7902    0.0000 C.ar    1  NONAME1     0.2379
      8 C8          5.6556   -6.0645    0.0000 C.ar    1  NONAME1     0.2082
      9 C9          5.6708   -4.7158    0.0000 C.ar    1  NONAME1     0.1806
     10 O1          4.4924   -3.9693    0.0000 O.2     1  NONAME1    -0.4507
     11 C10         9.3122   -3.4566    0.0000 C.ar    1  NONAME1    -0.0195
     12 C11         9.1176   -2.0855    0.0000 C.ar    1  NONAME1     0.1169
     13 C12         7.8346   -1.5629    0.0000 C.ar    1  NONAME1    -0.0195
     14 C13         6.7366   -2.4337    0.0000 C.ar    1  NONAME1    -0.0475
     15 C14         6.8899   -3.8384    0.0000 C.ar    1  NONAME1     0.0213
     16 C15         8.2091   -4.3216    0.0000 C.ar    1  NONAME1    -0.0475
     17 O2         -0.1790   -3.4691   -0.0000 O.3     1  NONAME1    -0.5065
     18 H1         -0.2874   -6.1287    0.0000 H       1  NONAME1     0.0691
     19 O3          1.6573   -7.8856    0.0000 O.3     1  NONAME1    -0.5058
     20 O4          4.3917   -8.0174    0.0000 O.2     1  NONAME1    -0.2830
     21 H2         -1.0057   -3.9796   -0.0000 H       1  NONAME1     0.2921
     22 O5          6.7727   -6.8788    0.0000 O.3     1  NONAME1    -0.5007
     23 O6         10.2173   -1.2822   -0.0000 O.3     1  NONAME1    -0.5068
     24 H3          9.9249   -0.3563   -0.0000 H       1  NONAME1     0.2921
     25 H4          2.2748   -2.6843    0.0000 H       1  NONAME1     0.0691
     26 H5         10.3198   -3.8633    0.0000 H       1  NONAME1     0.0654
     27 H6          7.6609   -0.4917    0.0000 H       1  NONAME1     0.0654
     28 H7          5.7466   -1.9817    0.0000 H       1  NONAME1     0.0626
     29 H8          8.4292   -5.3837    0.0000 H       1  NONAME1     0.0626
     30 H9          0.7137   -8.1103    0.0000 H       1  NONAME1     0.2922
     31 H10         6.4106   -7.7930    0.0000 H       1  NONAME1     0.2924
@<TRIPOS>BOND
     1     1     2   ar
     2     2     3   ar
     3     3     4   ar
     4     4     5   ar
     5     5     6   ar
     6     7     8   ar
     7     8     9   ar
     8     9    10   ar
     9     1     6   ar
    10     1    10   ar
    11     6     7   ar
    12    11    12   ar
    13    12    13   ar
    14    13    14   ar
    15    14    15   ar
    16    15    16   ar
    17    11    16   ar
    18     9    15    1
    19     3    17    1
    20     4    18    1
    21     5    19    1
    22     7    20    2
    23    21    17    1
    24     8    22    1
    25    12    23    1
    26    23    24    1
    27     2    25    1
    28    11    26    1
    29    13    27    1
    30    14    28    1
    31    16    29    1
    32    19    30    1
    33    22    31    1
