@<TRIPOS>MOLECULE
*****
 32 34 0 0 0
SMALL
USER_CHARGES

@<TRIPOS>ATOM
      1 C1          3.2681   -4.5958   -0.0000 C.ar    1  NONAME1     0.1465
      2 C2          2.1503   -3.7595   -0.0000 C.ar    1  NONAME1     0.0231
      3 C3          0.8765   -4.3138   -0.0000 C.ar    1  NONAME1     0.1239
      4 C4          0.6986   -5.6933   -0.0000 C.ar    1  NONAME1     0.0223
      5 C5          1.8221   -6.5258   -0.0000 C.ar    1  NONAME1     0.1348
      6 C6          3.1133   -5.9786   -0.0000 C.ar    1  NONAME1     0.1092
      7 C7          4.3400   -6.7916   -0.0000 C.ar    1  NONAME1     0.2379
      8 C8          5.6429   -6.0696   -0.0000 C.ar    1  NONAME1     0.2082
      9 C9          5.6627   -4.7209   -0.0000 C.ar    1  NONAME1     0.1807
     10 O1          4.4863   -3.9709   -0.0000 O.2     1  NONAME1    -0.4507
     11 C10         9.3174   -3.4853   -0.0000 C.ar    1  NONAME1    -0.0159
     12 C11         9.1245   -2.1175   -0.0000 C.ar    1  NONAME1     0.1583
     13 C12         7.8405   -1.5935   -0.0000 C.ar    1  NONAME1     0.1589
     14 C13         6.7317   -2.4397   -0.0000 C.ar    1  NONAME1    -0.0057
     15 C14         6.8852   -3.8461   -0.0000 C.ar    1  NONAME1     0.0247
     16 C15         8.2050   -4.3391   -0.0000 C.ar    1  NONAME1    -0.0473
     17 O2         -0.1834   -3.4570   -0.0000 O.3     1  NONAME1    -0.5065
     18 H1         -0.3001   -6.1167   -0.0000 H       1  NONAME1     0.0691
     19 O3          1.6398   -7.8790   -0.0000 O.3     1  NONAME1    -0.5058
     20 O4          4.3735   -8.0188   -0.0000 O.2     1  NONAME1    -0.2830
     21 H2         -1.0119   -3.9647   -0.0000 H       1  NONAME1     0.2921
     22 O5          6.7574   -6.8871   -0.0000 O.3     1  NONAME1    -0.5007
     23 O6         10.2057   -1.2861   -0.0000 O.3     1  NONAME1    -0.5033
     24 H3          9.8223   -0.3866   -0.0000 H       1  NONAME1     0.2923
     25 O7          7.7109   -0.2311   -0.0000 O.3     1  NONAME1    -0.5033
     26 H4          2.2712   -2.6797   -0.0000 H       1  NONAME1     0.0691
     27 H5         10.3230   -3.8952   -0.0000 H       1  NONAME1     0.0655
     28 H6          5.7403   -1.9965   -0.0000 H       1  NONAME1     0.0662
     29 H7          8.4172   -5.4031   -0.0000 H       1  NONAME1     0.0626
     30 H8          0.6957   -8.1019   -0.0000 H       1  NONAME1     0.2922
     31 H9          6.3933   -7.8007   -0.0000 H       1  NONAME1     0.2924
     32 H10         6.7625   -0.0158   -0.0000 H       1  NONAME1     0.2923
@<TRIPOS>BOND
     1     1     2   ar
     2     2     3   ar
     3     3     4   ar
     4     4     5   ar
     5     5     6   ar
     6     7     8   ar
     7     8     9   ar
     8     9    10   ar
     9     1     6   ar
    10     1    10   ar
    11     6     7   ar
    12    11    12   ar
    13    12    13   ar
    14    13    14   ar
    15    14    15   ar
    16    15    16   ar
    17    11    16   ar
    18     9    15    1
    19     3    17    1
    20     4    18    1
    21     5    19    1
    22     7    20    2
    23    21    17    1
    24     8    22    1
    25    12    23    1
    26    23    24    1
    27    25    13    1
    28     2    26    1
    29    11    27    1
    30    14    28    1
    31    16    29    1
    32    19    30    1
    33    22    31    1
    34    25    32    1
