@<TRIPOS>MOLECULE
*****
 61 63 0 0 0
SMALL
USER_CHARGES

@<TRIPOS>ATOM
      1 C1        -11.3800    6.5459   -0.1716 C.ar    1  NONAME1    -0.0160
      2 C2        -12.5328    5.7791   -0.1316 C.ar    1  NONAME1     0.1582
      3 C3        -12.4440    4.3924   -0.0837 C.ar    1  NONAME1     0.1588
      4 C4        -11.2092    3.7503   -0.0672 C.ar    1  NONAME1    -0.0094
      5 C5        -10.0247    4.5015   -0.0975 C.ar    1  NONAME1    -0.0211
      6 C6        -10.1331    5.9059   -0.1564 C.ar    1  NONAME1    -0.0509
      7 O1        -13.7780    6.3421   -0.1317 O.3     1  NONAME1    -0.5033
      8 O2        -13.5845    3.6419   -0.0416 O.3     1  NONAME1    -0.5033
      9 C7         -8.7311    3.7845   -0.0257 C.2     1  NONAME1    -0.0477
     10 C8         -7.5337    4.3857    0.0360 C.2     1  NONAME1     0.0231
     11 C9         -6.2305    3.7331    0.2495 C.2     1  NONAME1     0.3323
     12 O3         -5.2697    4.4018    0.6044 O.2     1  NONAME1    -0.2456
     13 O4         -6.2407    2.3858    0.0555 O.3     1  NONAME1    -0.4554
     14 C10        -4.9815    1.7572    0.3830 C.3     1  NONAME1     0.1357
     15 C11        -3.9731    1.8192   -0.7578 C.3     1  NONAME1     0.0264
     16 C12        -5.1871    0.2755    0.6229 C.3     1  NONAME1     0.1290
     17 C13        -3.8604   -0.5531    0.6465 C.3     1  NONAME1     0.1357
     18 C14        -2.5809    0.1100    0.0000 C.3     1  NONAME1     0.0264
     19 C15        -2.5809    1.6500    0.0000 C.3     1  NONAME1     0.1687
     20 O5         -5.9092    0.0686    1.8395 O.3     1  NONAME1    -0.3844
     21 C16        -1.3934    1.7867   -0.9925 C.2     1  NONAME1     0.3370
     22 O6         -2.5809    3.1900    0.0000 O.3     1  NONAME1    -0.3772
     23 O7         -0.2447    2.1096   -0.3426 O.3     1  NONAME1    -0.4786
     24 O8         -1.3892    1.6179   -2.2011 O.2     1  NONAME1    -0.2478
     25 O9         -4.1278   -1.7752   -0.1154 O.3     1  NONAME1    -0.4554
     26 C17        -4.9695   -2.6549    0.4948 C.2     1  NONAME1     0.3323
     27 O10        -4.7303   -3.2567    1.5272 O.2     1  NONAME1    -0.2456
     28 C18        -6.2729   -2.6241   -0.2158 C.2     1  NONAME1     0.0231
     29 C19        -7.3921   -2.8054    0.5032 C.2     1  NONAME1    -0.0477
     30 C20        -8.7343   -2.4186    0.0435 C.ar    1  NONAME1    -0.0211
     31 C21       -10.2769   -0.6839   -0.7085 C.ar    1  NONAME1    -0.0160
     32 C22       -11.3306   -1.5631   -0.5265 C.ar    1  NONAME1     0.1582
     33 C23       -11.1041   -2.8628   -0.0807 C.ar    1  NONAME1     0.1588
     34 C24        -9.8126   -3.2976    0.2121 C.ar    1  NONAME1    -0.0094
     35 C25        -8.9784   -1.1123   -0.4225 C.ar    1  NONAME1    -0.0509
     36 O11       -12.6019   -1.1331   -0.7733 O.3     1  NONAME1    -0.5033
     37 O12       -12.1946   -3.6747    0.0749 O.3     1  NONAME1    -0.5033
     38 H1        -11.4205    7.6299   -0.2081 H       1  NONAME1     0.0655
     39 H2        -11.1911    2.6651   -0.0170 H       1  NONAME1     0.0661
     40 H3         -9.2520    6.5409   -0.1821 H       1  NONAME1     0.0625
     41 H4        -13.6743    7.3093   -0.1455 H       1  NONAME1     0.2923
     42 H5        -14.3115    4.2956   -0.0622 H       1  NONAME1     0.2923
     43 H6         -8.7932    2.7003    0.0334 H       1  NONAME1     0.0626
     44 H7         -7.4302    5.4644    0.0164 H       1  NONAME1     0.0689
     45 H8         -4.6085    2.2066    1.3141 H       1  NONAME1     0.0762
     46 H9         -4.0931    2.7498   -1.3355 H       1  NONAME1     0.0335
     47 H10        -4.1575    1.0504   -1.5237 H       1  NONAME1     0.0335
     48 H11        -5.8417   -0.0843   -0.1765 H       1  NONAME1     0.0668
     49 H12        -3.6127   -0.8374    1.6775 H       1  NONAME1     0.0762
     50 H13        -1.7216   -0.2418    0.5895 H       1  NONAME1     0.0335
     51 H14        -2.4371   -0.3338   -0.9973 H       1  NONAME1     0.0335
     52 H15        -6.7171    0.6132    1.7946 H       1  NONAME1     0.2101
     53 H16        -1.8383    3.4520    0.5795 H       1  NONAME1     0.2109
     54 H17         0.4109    2.1879   -1.0687 H       1  NONAME1     0.2951
     55 H18        -6.2809   -2.2554   -1.2343 H       1  NONAME1     0.0689
     56 H19        -7.3344   -3.1327    1.5406 H       1  NONAME1     0.0626
     57 H20       -10.4675    0.3296   -1.0482 H       1  NONAME1     0.0655
     58 H21        -9.6382   -4.3013    0.5870 H       1  NONAME1     0.0661
     59 H22        -8.1663   -0.3991   -0.5315 H       1  NONAME1     0.0625
     60 H23       -13.1720   -1.8919   -0.5391 H       1  NONAME1     0.2923
     61 H24       -11.8833   -4.5514    0.3582 H       1  NONAME1     0.2923
@<TRIPOS>BOND
     1     1     2   ar
     2     2     3   ar
     3     3     4   ar
     4     4     5   ar
     5     5     6   ar
     6     1     6   ar
     7     2     7    1
     8     3     8    1
     9     5     9    1
    10     9    10    2
    11    10    11    1
    12    11    12    2
    13    11    13    1
    14    13    14    1
    15    16    17    1
    16    17    18    1
    17    18    19    1
    18    15    19    1
    19    15    14    1
    20    14    16    1
    21    16    20    1
    22    19    21    1
    23    19    22    1
    24    21    23    1
    25    21    24    2
    26    17    25    1
    27    25    26    1
    28    26    27    2
    29    26    28    1
    30    28    29    2
    31    29    30    1
    32    31    32   ar
    33    32    33   ar
    34    33    34   ar
    35    31    35   ar
    36    34    30   ar
    37    30    35   ar
    38    32    36    1
    39    33    37    1
    40     1    38    1
    41     4    39    1
    42     6    40    1
    43     7    41    1
    44     8    42    1
    45     9    43    1
    46    10    44    1
    47    14    45    1
    48    15    46    1
    49    15    47    1
    50    16    48    1
    51    17    49    1
    52    18    50    1
    53    18    51    1
    54    20    52    1
    55    22    53    1
    56    23    54    1
    57    28    55    1
    58    29    56    1
    59    31    57    1
    60    34    58    1
    61    35    59    1
    62    36    60    1
    63    37    61    1
