@<TRIPOS>MOLECULE
*****
 134 139 0 0 0
SMALL
USER_CHARGES

@<TRIPOS>ATOM
      1 C           5.0062   -2.4374   -0.9544 C.3     1  NONAME11   -0.0463
      2 C           4.0994   -3.6212   -1.3801 C.3     1  NONAME11   -0.0463
      3 C           3.6960   -4.3740    0.0000 C.3     1  NONAME11   -0.0219
      4 C           5.0297   -5.1440    0.0000 C.3     1  NONAME11   -0.0257
      5 C           6.4897   -4.4195   -0.3755 C.3     1  NONAME11   -0.0228
      6 C           6.4691   -2.8932   -0.8632 C.3     1  NONAME11   -0.0232
      7 C           2.6416   -5.8178   -0.1603 C.3     1  NONAME11   -0.0136
      8 C           2.9962   -7.1749    0.4294 C.2     1  NONAME11   -0.0617
      9 C           4.2688   -7.5528    0.3739 C.2     1  NONAME11   -0.0836
     10 C           5.2157   -6.6510   -0.2955 C.3     1  NONAME11   -0.0306
     11 C           2.0605   -6.1458   -1.5589 C.3     1  NONAME11   -0.0436
     12 C           0.8282   -7.0781   -1.4159 C.3     1  NONAME11   -0.0251
     13 C           1.1268   -8.3911   -0.6454 C.3     1  NONAME11    0.0705
     14 C           1.8339   -8.1374    0.7323 C.3     1  NONAME11    0.0127
     15 C           7.3274   -2.1330    0.2307 C.3     1  NONAME11   -0.0301
     16 C           7.3144   -4.3893    0.9488 C.3     1  NONAME11   -0.0466
     17 C           8.2387   -3.2046    0.8205 C.3     1  NONAME11   -0.0489
     18 C           8.0357   -0.7551    0.0133 C.3     1  NONAME11   -0.0119
     19 C           7.0390   -2.6581   -2.2831 C.3     1  NONAME11   -0.0588
     20 C           2.3623   -3.6040    0.0000 C.3     1  NONAME11   -0.0587
     21 O          -0.0618   -9.1754   -0.4311 O.3     1  NONAME11   -0.3469
     22 C           0.8700   -7.5581    1.7929 C.3     1  NONAME11   -0.0537
     23 C           2.3007   -9.5056    1.2974 C.3     1  NONAME11   -0.0537
     24 C           7.3381   -5.2652   -1.3895 C.3     1  NONAME11   -0.0588
     25 C          -0.5399   -9.8848   -1.5721 C.3     1  NONAME11    0.1653
     26 O          -1.9152  -10.2419   -1.4069 O.3     1  NONAME11   -0.3429
     27 C          -2.1814  -11.2106   -0.3753 C.3     1  NONAME11    0.1110
     28 C           0.2995  -11.1361   -1.9066 C.3     1  NONAME11    0.0383
     29 C           0.1132  -12.1951   -0.7910 C.3     1  NONAME11   -0.0058
     30 C          -1.3800  -12.5225   -0.5974 C.3     1  NONAME11    0.0866
     31 C          -0.0842  -11.6174   -3.3170 C.3     1  NONAME11    0.0520
     32 C          -3.7081  -11.4535   -0.4017 C.3     1  NONAME11    0.0795
     33 O          -4.1049  -12.4604    0.5220 O.3     1  NONAME11   -0.3461
     34 O          -1.5387  -13.4328    0.4964 O.3     1  NONAME11   -0.3889
     35 C           0.9744  -13.4470   -0.9884 C.3     1  NONAME11   -0.0595
     36 O           0.7791  -12.6487   -3.7740 O.3     1  NONAME11   -0.3946
     37 O          -9.8145  -13.2276   -0.9683 O.3     1  NONAME11   -0.3924
     38 C          -8.7971  -12.7955   -0.0747 C.3     1  NONAME11    0.0730
     39 C          -7.4797  -13.5549   -0.3023 C.3     1  NONAME11    0.1130
     40 O          -6.4147  -12.7285    0.2086 O.3     1  NONAME11   -0.3405
     41 C          -5.1325  -13.3153    0.0187 C.3     1  NONAME11    0.1880
     42 C          -5.0269  -14.6331    0.8004 C.3     1  NONAME11    0.1341
     43 O          -3.7329  -15.2350    0.6265 O.3     1  NONAME11   -0.3841
     44 C          -6.1018  -15.5865    0.2927 C.3     1  NONAME11    0.1141
     45 O          -6.0943  -16.8046    1.0559 O.3     1  NONAME11   -0.3864
     46 C          -7.4860  -14.9366    0.3911 C.3     1  NONAME11    0.1119
     47 O          -8.4419  -15.8297   -0.1827 O.3     1  NONAME11   -0.3865
     48 C           9.2275   -0.5323   -0.9853 C.3     1  NONAME11    0.0864
     49 C          10.5950   -1.2835   -0.9081 C.3     1  NONAME11    0.1097
     50 C          11.3927   -1.1318    0.4156 C.3     1  NONAME11    0.1115
     51 C          12.7650   -1.8736    0.5057 C.3     1  NONAME11    0.0888
     52 C          13.7860   -1.3195   -0.4898 C.3     1  NONAME11   -0.0338
     53 C          12.6822   -3.3999    0.3922 C.3     1  NONAME11   -0.0338
     54 O          13.2631   -1.5910    1.8386 O.3     1  NONAME11   -0.3865
     55 O           9.5676    0.8755   -0.9606 O.3     1  NONAME11   -0.3889
     56 O          10.6155   -1.5086    1.5590 O.3     1  NONAME11   -0.3863
     57 O          10.4846   -2.6338   -1.3429 O.3     1  NONAME11   -0.3866
     58 C           6.9397    0.3047   -0.2571 C.3     1  NONAME11   -0.0597
     59 H           4.6757   -2.0304    0.0084 H       1  NONAME11    0.0271
     60 H           4.8846   -1.6165   -1.6715 H       1  NONAME11    0.0271
     61 H           3.2608   -3.2085   -1.9600 H       1  NONAME11    0.0271
     62 H           4.5746   -4.2902   -2.1112 H       1  NONAME11    0.0271
     63 H           5.1015   -5.1827    1.1008 H       1  NONAME11    0.0315
     64 H           1.7828   -5.5801    0.4783 H       1  NONAME11    0.0351
     65 H           4.6154   -8.5401    0.6560 H       1  NONAME11    0.0572
     66 H           6.1839   -6.9785    0.0985 H       1  NONAME11    0.0310
     67 H           5.2038   -6.8494   -1.3734 H       1  NONAME11    0.0310
     68 H           1.7473   -5.2547   -2.1083 H       1  NONAME11    0.0272
     69 H           2.8176   -6.6356   -2.1838 H       1  NONAME11    0.0272
     70 H           0.4562   -7.3081   -2.4200 H       1  NONAME11    0.0291
     71 H           0.0102   -6.5404   -0.9202 H       1  NONAME11    0.0291
     72 H           1.8260   -8.9648   -1.2663 H       1  NONAME11    0.0605
     73 H           6.6138   -1.9252    1.0463 H       1  NONAME11    0.0310
     74 H           7.8656   -5.3179    1.1323 H       1  NONAME11    0.0271
     75 H           6.6770   -4.2162    1.8246 H       1  NONAME11    0.0271
     76 H           9.0733   -3.4666    0.1787 H       1  NONAME11    0.0268
     77 H           8.6254   -2.9240    1.8037 H       1  NONAME11    0.0268
     78 H           8.4283   -0.4766    1.0017 H       1  NONAME11    0.0327
     79 H           8.1019   -2.8813   -2.3544 H       1  NONAME11    0.0235
     80 H           6.5190   -3.2615   -3.0351 H       1  NONAME11    0.0235
     81 H           6.9131   -1.6170   -2.5976 H       1  NONAME11    0.0235
     82 H           1.8486   -3.7307    0.9664 H       1  NONAME11    0.0235
     83 H           2.5394   -2.5173    0.0410 H       1  NONAME11    0.0235
     84 H           1.6308   -3.7369   -0.8037 H       1  NONAME11    0.0235
     85 H           0.3039   -6.6950    1.4317 H       1  NONAME11    0.0239
     86 H           0.1279   -8.3014    2.1075 H       1  NONAME11    0.0239
     87 H           1.4199   -7.2466    2.6891 H       1  NONAME11    0.0239
     88 H           1.4485  -10.1393    1.5664 H       1  NONAME11    0.0239
     89 H           2.9032   -9.3769    2.2044 H       1  NONAME11    0.0239
     90 H           2.8966  -10.0672    0.5686 H       1  NONAME11    0.0239
     91 H           6.7991   -5.4131   -2.3308 H       1  NONAME11    0.0235
     92 H           7.6263   -6.2485   -1.0090 H       1  NONAME11    0.0235
     93 H           8.3006   -4.7968   -1.6155 H       1  NONAME11    0.0235
     94 H          -0.5302   -9.2040   -2.4278 H       1  NONAME11    0.0913
     95 H          -1.9223  -10.7899    0.6051 H       1  NONAME11    0.0646
     96 H           1.3660  -10.8857   -1.9240 H       1  NONAME11    0.0375
     97 H           0.4716  -11.7517    0.1482 H       1  NONAME11    0.0329
     98 H          -1.7655  -13.0305   -1.4890 H       1  NONAME11    0.0623
     99 H          -0.0118  -10.7946   -4.0368 H       1  NONAME11    0.0561
    100 H          -1.1101  -11.9934   -3.3608 H       1  NONAME11    0.0561
    101 H          -4.2322  -10.5257   -0.1440 H       1  NONAME11    0.0587
    102 H          -4.0068  -11.6971   -1.4295 H       1  NONAME11    0.0587
    103 H          -1.0406  -14.2415    0.2793 H       1  NONAME11    0.2099
    104 H           1.0595  -14.0106   -0.0528 H       1  NONAME11    0.0233
    105 H           0.5490  -14.1209   -1.7379 H       1  NONAME11    0.0233
    106 H           1.9925  -13.1799   -1.2901 H       1  NONAME11    0.0233
    107 H           1.6767  -12.2802   -3.8458 H       1  NONAME11    0.2094
    108 H         -10.6518  -12.8449   -0.6566 H       1  NONAME11    0.2095
    109 H          -9.1470  -12.9236    0.9559 H       1  NONAME11    0.0584
    110 H          -8.6487  -11.7219   -0.2348 H       1  NONAME11    0.0584
    111 H          -7.3411  -13.6860   -1.3838 H       1  NONAME11    0.0647
    112 H          -4.9552  -13.5155   -1.0469 H       1  NONAME11    0.0937
    113 H          -5.1498  -14.4630    1.8770 H       1  NONAME11    0.0671
    114 H          -3.1000  -14.5029    0.8198 H       1  NONAME11    0.2101
    115 H          -5.8954  -15.8882   -0.7422 H       1  NONAME11    0.0648
    116 H          -5.1519  -17.0652    1.1040 H       1  NONAME11    0.2100
    117 H          -7.7488  -14.8239    1.4506 H       1  NONAME11    0.0647
    118 H          -8.2448  -16.7062    0.2037 H       1  NONAME11    0.2100
    119 H           8.8424   -0.7007   -1.9945 H       1  NONAME11    0.0623
    120 H          11.2339   -0.8075   -1.6654 H       1  NONAME11    0.0646
    121 H          11.5898   -0.0622    0.5646 H       1  NONAME11    0.0649
    122 H          14.7711   -1.7744   -0.3305 H       1  NONAME11    0.0258
    123 H          13.9218   -0.2415   -0.3472 H       1  NONAME11    0.0258
    124 H          13.4910   -1.5026   -1.5269 H       1  NONAME11    0.0258
    125 H          11.8890   -3.8049    1.0293 H       1  NONAME11    0.0258
    126 H          12.5131   -3.7317   -0.6357 H       1  NONAME11    0.0258
    127 H          13.6151   -3.8666    0.7315 H       1  NONAME11    0.0258
    128 H          14.1275   -2.0313    1.9292 H       1  NONAME11    0.2102
    129 H           9.6788    1.1240   -0.0243 H       1  NONAME11    0.2099
    130 H          11.2704   -1.5841    2.2844 H       1  NONAME11    0.2100
    131 H          10.1949   -2.6173   -2.2710 H       1  NONAME11    0.2100
    132 H           7.3188    1.3199   -0.0996 H       1  NONAME11    0.0233
    133 H           6.0932    0.1846    0.4274 H       1  NONAME11    0.0233
    134 H           6.5643    0.2424   -1.2819 H       1  NONAME11    0.0233
@<TRIPOS>BOND
     1     1     2    1
     2     2     3    1
     3     3     4    1
     4     4     5    1
     5     5     6    1
     6     1     6    1
     7     7     8    1
     8     8     9    2
     9     9    10    1
    10     3     7    1
    11    10     4    1
    12    11    12    1
    13    12    13    1
    14    13    14    1
    15    11     7    1
    16    14     8    1
    17    16    17    1
    18    15    17    1
    19    15     6    1
    20     5    16    1
    21    15    18    1
    22     6    19    1
    23     3    20    1
    24    13    21    1
    25    14    22    1
    26    14    23    1
    27     5    24    1
    28    21    25    1
    29    25    26    1
    30    26    27    1
    31    25    28    1
    32    28    29    1
    33    29    30    1
    34    28    31    1
    35    27    32    1
    36    32    33    1
    37    27    30    1
    38    30    34    1
    39    29    35    1
    40    31    36    1
    41    37    38    1
    42    39    38    1
    43    39    40    1
    44    41    40    1
    45    42    41    1
    46    42    43    1
    47    42    44    1
    48    44    45    1
    49    44    46    1
    50    46    39    1
    51    46    47    1
    52    41    33    1
    53    18    48    1
    54    48    49    1
    55    49    50    1
    56    50    51    1
    57    51    52    1
    58    51    53    1
    59    51    54    1
    60    48    55    1
    61    50    56    1
    62    49    57    1
    63    18    58    1
    64     1    59    1
    65     1    60    1
    66     2    61    1
    67     2    62    1
    68     4    63    1
    69     7    64    1
    70     9    65    1
    71    10    66    1
    72    10    67    1
    73    11    68    1
    74    11    69    1
    75    12    70    1
    76    12    71    1
    77    13    72    1
    78    15    73    1
    79    16    74    1
    80    16    75    1
    81    17    76    1
    82    17    77    1
    83    18    78    1
    84    19    79    1
    85    19    80    1
    86    19    81    1
    87    20    82    1
    88    20    83    1
    89    20    84    1
    90    22    85    1
    91    22    86    1
    92    22    87    1
    93    23    88    1
    94    23    89    1
    95    23    90    1
    96    24    91    1
    97    24    92    1
    98    24    93    1
    99    25    94    1
   100    27    95    1
   101    28    96    1
   102    29    97    1
   103    30    98    1
   104    31    99    1
   105    31   100    1
   106    32   101    1
   107    32   102    1
   108    34   103    1
   109    35   104    1
   110    35   105    1
   111    35   106    1
   112    36   107    1
   113    37   108    1
   114    38   109    1
   115    38   110    1
   116    39   111    1
   117    41   112    1
   118    42   113    1
   119    43   114    1
   120    44   115    1
   121    45   116    1
   122    46   117    1
   123    47   118    1
   124    48   119    1
   125    49   120    1
   126    50   121    1
   127    52   122    1
   128    52   123    1
   129    52   124    1
   130    53   125    1
   131    53   126    1
   132    53   127    1
   133    54   128    1
   134    55   129    1
   135    56   130    1
   136    57   131    1
   137    58   132    1
   138    58   133    1
   139    58   134    1
