@<TRIPOS>MOLECULE
*****
 126 132 0 0 0
SMALL
USER_CHARGES

@<TRIPOS>ATOM
      1 C         -11.1235    2.5001    0.9748 C.3     1  NONAME1    -0.0442
      2 C         -12.4141    1.9970    0.3528 C.3     1  NONAME1    -0.0226
      3 C         -12.7158    0.5519    0.7368 C.3     1  NONAME1     0.1019
      4 C         -11.5017   -0.4366    0.5512 C.3     1  NONAME1     0.0272
      5 C         -10.2011    0.2909    0.0320 C.3     1  NONAME1     0.0985
      6 C          -9.8665    1.6737    0.6316 C.3     1  NONAME1     0.0007
      7 O         -13.9140    0.2199    0.0152 O.3     1  NONAME1    -0.2282
      8 C         -11.8450   -1.5934   -0.4265 C.3     1  NONAME1    -0.0544
      9 C         -11.2598   -1.0700    1.9489 C.3     1  NONAME1    -0.0544
     10 C          -8.9376    2.2432   -0.5064 C.3     1  NONAME1     0.0067
     11 C          -8.9212   -0.5410    0.1788 C.2     1  NONAME1    -0.0554
     12 C          -7.7075   -0.0081   -0.0250 C.2     1  NONAME1    -0.0810
     13 C          -7.6136    1.3582   -0.6585 C.3     1  NONAME1    -0.0088
     14 O         -10.3672    0.5610   -1.3941 O.3     1  NONAME1    -0.3679
     15 C          -7.3414    4.3218   -0.7600 C.3     1  NONAME1    -0.0462
     16 C          -8.7260    3.7687   -0.4189 C.3     1  NONAME1    -0.0438
     17 C          -6.2269    2.0837   -0.7245 C.3     1  NONAME1    -0.0196
     18 C          -6.2233    3.5225   -0.0846 C.3     1  NONAME1    -0.0229
     19 C          -9.8359    1.8660   -1.7006 C.3     1  NONAME1     0.0554
     20 C          -4.7434    3.9457   -0.3593 C.3     1  NONAME1    -0.0301
     21 C          -5.0054    1.4692   -0.0209 C.3     1  NONAME1    -0.0463
     22 C          -3.9743    2.6278    0.0090 C.3     1  NONAME1    -0.0488
     23 C          -6.4646    3.5235    1.4544 C.3     1  NONAME1    -0.0588
     24 C          -5.8506    2.0582   -2.2665 C.3     1  NONAME1    -0.0585
     25 C          -4.0677    5.2242    0.2461 C.3     1  NONAME1    -0.0116
     26 C          -2.6708    5.3583   -0.3983 C.3     1  NONAME1    -0.0597
     27 C          -4.9035    6.5191    0.0642 C.3     1  NONAME1     0.0907
     28 C          -4.2352    7.9098    0.2888 C.3     1  NONAME1     0.1382
     29 C          -3.2300    8.0524    1.4018 C.2     1  NONAME1    -0.0514
     30 C          -2.0462    8.7018    1.3281 C.2     1  NONAME1    -0.0770
     31 C          -1.1111    8.7528    2.5060 C.3     1  NONAME1    -0.0440
     32 C          -1.5337    9.4456    0.1194 C.3     1  NONAME1    -0.0440
     33 O          -5.4302    6.5510   -1.2814 O.3     1  NONAME1    -0.3885
     34 O          -5.3371    8.8003    0.5742 O.3     1  NONAME1    -0.2221
     35 O         -18.6375    1.8246   -1.2093 O.3     1  NONAME1    -0.3924
     36 C         -17.7453    1.8393   -0.0975 C.3     1  NONAME1     0.0730
     37 C         -17.0124    0.4971    0.0549 C.3     1  NONAME1     0.1131
     38 O         -16.2206    0.5833    1.2476 O.3     1  NONAME1    -0.3383
     39 C         -15.5013   -0.6197    1.5553 C.3     1  NONAME1     0.2213
     40 O         -14.4870   -0.9870    0.6067 O.3     1  NONAME1    -0.1997
     41 C         -16.4781   -1.7978    1.7285 C.3     1  NONAME1     0.1369
     42 O         -15.8166   -3.0233    2.0665 O.3     1  NONAME1    -0.3840
     43 C         -17.2813   -1.9745    0.4414 C.3     1  NONAME1     0.1142
     44 O         -18.2351   -3.0366    0.6224 O.3     1  NONAME1    -0.3864
     45 C         -18.0118   -0.6739    0.1043 C.3     1  NONAME1     0.1119
     46 O         -18.7052   -0.8657   -1.1353 O.3     1  NONAME1    -0.3865
     47 O          -5.3850   15.2114    0.3966 O.3     1  NONAME1    -0.3924
     48 C          -5.0348   14.2373   -0.5839 C.3     1  NONAME1     0.0730
     49 C          -5.5367   12.8438   -0.1800 C.3     1  NONAME1     0.1131
     50 O          -5.1875   11.9281   -1.2330 O.3     1  NONAME1    -0.3383
     51 C          -5.5837   10.5756   -0.9290 C.3     1  NONAME1     0.2214
     52 O          -4.9023   10.1563    0.2618 O.3     1  NONAME1    -0.1994
     53 C          -7.1239   10.5295   -0.8412 C.3     1  NONAME1     0.1369
     54 O          -7.6643    9.2073   -0.7038 O.3     1  NONAME1    -0.3840
     55 C          -7.5759   11.4260    0.3099 C.3     1  NONAME1     0.1142
     56 O          -9.0139   11.4341    0.3642 O.3     1  NONAME1    -0.3864
     57 C          -7.0553   12.8524    0.0941 C.3     1  NONAME1     0.1119
     58 O          -7.4054   13.6279    1.2472 O.3     1  NONAME1    -0.3865
     59 H         -11.0068    3.5593    0.7325 H       1  NONAME1     0.0270
     60 H         -11.2507    2.4686    2.0659 H       1  NONAME1     0.0270
     61 H         -13.2441    2.6322    0.6916 H       1  NONAME1     0.0291
     62 H         -12.4191    2.1097   -0.7352 H       1  NONAME1     0.0291
     63 H         -12.9911    0.5887    1.7991 H       1  NONAME1     0.0634
     64 H          -9.2911    1.5904    1.5641 H       1  NONAME1     0.0338
     65 H         -12.2357   -1.2133   -1.3770 H       1  NONAME1     0.0237
     66 H         -12.5836   -2.2825   -0.0065 H       1  NONAME1     0.0237
     67 H         -10.9658   -2.2040   -0.6583 H       1  NONAME1     0.0237
     68 H         -12.1900   -1.4865    2.3548 H       1  NONAME1     0.0237
     69 H         -10.5476   -1.8997    1.9177 H       1  NONAME1     0.0237
     70 H         -10.8879   -0.3269    2.6623 H       1  NONAME1     0.0237
     71 H          -8.9890   -1.5845    0.4708 H       1  NONAME1     0.0598
     72 H          -6.8185   -0.6259    0.0711 H       1  NONAME1     0.0573
     73 H          -7.7016    0.9972   -1.6946 H       1  NONAME1     0.0355
     74 H          -7.3385    5.3595   -0.4181 H       1  NONAME1     0.0271
     75 H          -7.2135    4.3638   -1.8456 H       1  NONAME1     0.0271
     76 H          -9.4628    4.2986   -1.0356 H       1  NONAME1     0.0272
     77 H          -8.9345    4.0942    0.6083 H       1  NONAME1     0.0272
     78 H         -10.6725    2.5575   -1.8360 H       1  NONAME1     0.0566
     79 H          -9.3135    1.8297   -2.6625 H       1  NONAME1     0.0566
     80 H          -4.6522    4.1004   -1.4407 H       1  NONAME1     0.0310
     81 H          -4.5987    0.5930   -0.5375 H       1  NONAME1     0.0271
     82 H          -5.2421    1.1547    1.0023 H       1  NONAME1     0.0271
     83 H          -3.1731    2.4390   -0.7140 H       1  NONAME1     0.0268
     84 H          -3.5136    2.6857    1.0019 H       1  NONAME1     0.0268
     85 H          -5.5969    3.1830    2.0280 H       1  NONAME1     0.0235
     86 H          -6.6873    4.5350    1.8119 H       1  NONAME1     0.0235
     87 H          -7.2973    2.8780    1.7448 H       1  NONAME1     0.0235
     88 H          -6.5798    2.6007   -2.8753 H       1  NONAME1     0.0235
     89 H          -5.8276    1.0213   -2.6297 H       1  NONAME1     0.0235
     90 H          -4.8586    2.4487   -2.5046 H       1  NONAME1     0.0235
     91 H          -3.9180    5.0716    1.3226 H       1  NONAME1     0.0327
     92 H          -2.0805    4.4458   -0.2697 H       1  NONAME1     0.0233
     93 H          -2.7475    5.5617   -1.4717 H       1  NONAME1     0.0233
     94 H          -2.0786    6.1550    0.0515 H       1  NONAME1     0.0233
     95 H          -5.7720    6.4431    0.7292 H       1  NONAME1     0.0626
     96 H          -3.8085    8.2089   -0.6738 H       1  NONAME1     0.0699
     97 H          -3.5177    7.5845    2.3407 H       1  NONAME1     0.0599
     98 H          -1.4887    8.1856    3.3621 H       1  NONAME1     0.0274
     99 H          -0.9630    9.7894    2.8265 H       1  NONAME1     0.0274
    100 H          -0.1374    8.3335    2.2305 H       1  NONAME1     0.0274
    101 H          -0.6478    8.9447   -0.2842 H       1  NONAME1     0.0274
    102 H          -1.2545   10.4679    0.3976 H       1  NONAME1     0.0274
    103 H          -2.2606    9.5350   -0.6900 H       1  NONAME1     0.0274
    104 H          -6.1187    7.2478   -1.2816 H       1  NONAME1     0.2099
    105 H         -18.9850    2.7321   -1.2949 H       1  NONAME1     0.2095
    106 H         -18.3207    2.0666    0.8074 H       1  NONAME1     0.0584
    107 H         -17.0195    2.6489   -0.2327 H       1  NONAME1     0.0584
    108 H         -16.3633    0.3740   -0.8211 H       1  NONAME1     0.0647
    109 H         -14.9854   -0.4561    2.5072 H       1  NONAME1     0.0968
    110 H         -17.1706   -1.5807    2.5512 H       1  NONAME1     0.0672
    111 H         -16.4610   -3.7271    1.8476 H       1  NONAME1     0.2101
    112 H         -16.6374   -2.2933   -0.3875 H       1  NONAME1     0.0648
    113 H         -18.8207   -2.9735   -0.1609 H       1  NONAME1     0.2100
    114 H         -18.7768   -0.4879    0.8689 H       1  NONAME1     0.0647
    115 H         -18.9413    0.0338   -1.4563 H       1  NONAME1     0.2100
    116 H          -4.9268   16.0349    0.1440 H       1  NONAME1     0.2095
    117 H          -5.4611   14.5387   -1.5471 H       1  NONAME1     0.0584
    118 H          -3.9451   14.2227   -0.6979 H       1  NONAME1     0.0584
    119 H          -5.0100   12.5701    0.7441 H       1  NONAME1     0.0647
    120 H          -5.2415    9.9398   -1.7525 H       1  NONAME1     0.0968
    121 H          -7.5448   10.9225   -1.7757 H       1  NONAME1     0.0672
    122 H          -8.5706    9.3490   -0.3589 H       1  NONAME1     0.2101
    123 H          -7.2465   11.0256    1.2762 H       1  NONAME1     0.0648
    124 H          -9.2310   12.1486    0.9986 H       1  NONAME1     0.2100
    125 H          -7.5865   13.2964   -0.7574 H       1  NONAME1     0.0647
    126 H          -6.8491   14.4385    1.2118 H       1  NONAME1     0.2100
@<TRIPOS>BOND
     1     1     2    1
     2     2     3    1
     3     3     4    1
     4     4     5    1
     5     5     6    1
     6     1     6    1
     7     3     7    1
     8     4     8    1
     9     4     9    1
    10    11    12    2
    11    12    13    1
    12    10    13    1
    13     5    11    1
    14    10     6    1
    15     5    14    1
    16    15    16    1
    17    17    18    1
    18    15    18    1
    19    16    10    1
    20    13    17    1
    21    10    19    1
    22    14    19    1
    23    21    22    1
    24    20    22    1
    25    20    18    1
    26    17    21    1
    27    18    23    1
    28    17    24    1
    29    20    25    1
    30    25    26    1
    31    25    27    1
    32    27    28    1
    33    28    29    1
    34    29    30    2
    35    30    31    1
    36    30    32    1
    37    27    33    1
    38    28    34    1
    39    35    36    1
    40    37    36    1
    41    37    38    1
    42    39    38    1
    43    39    40    1
    44    41    39    1
    45    41    42    1
    46    41    43    1
    47    43    44    1
    48    43    45    1
    49    45    37    1
    50    45    46    1
    51    40     7    1
    52    47    48    1
    53    49    48    1
    54    49    50    1
    55    51    50    1
    56    51    52    1
    57    53    51    1
    58    53    54    1
    59    53    55    1
    60    55    56    1
    61    55    57    1
    62    57    49    1
    63    57    58    1
    64    34    52    1
    65     1    59    1
    66     1    60    1
    67     2    61    1
    68     2    62    1
    69     3    63    1
    70     6    64    1
    71     8    65    1
    72     8    66    1
    73     8    67    1
    74     9    68    1
    75     9    69    1
    76     9    70    1
    77    11    71    1
    78    12    72    1
    79    13    73    1
    80    15    74    1
    81    15    75    1
    82    16    76    1
    83    16    77    1
    84    19    78    1
    85    19    79    1
    86    20    80    1
    87    21    81    1
    88    21    82    1
    89    22    83    1
    90    22    84    1
    91    23    85    1
    92    23    86    1
    93    23    87    1
    94    24    88    1
    95    24    89    1
    96    24    90    1
    97    25    91    1
    98    26    92    1
    99    26    93    1
   100    26    94    1
   101    27    95    1
   102    28    96    1
   103    29    97    1
   104    31    98    1
   105    31    99    1
   106    31   100    1
   107    32   101    1
   108    32   102    1
   109    32   103    1
   110    33   104    1
   111    35   105    1
   112    36   106    1
   113    36   107    1
   114    37   108    1
   115    39   109    1
   116    41   110    1
   117    42   111    1
   118    43   112    1
   119    44   113    1
   120    45   114    1
   121    46   115    1
   122    47   116    1
   123    48   117    1
   124    48   118    1
   125    49   119    1
   126    51   120    1
   127    53   121    1
   128    54   122    1
   129    55   123    1
   130    56   124    1
   131    57   125    1
   132    58   126    1
