@<TRIPOS>MOLECULE
*****
 107 111 0 0 0
SMALL
USER_CHARGES

@<TRIPOS>ATOM
      1 C1         -2.6078    6.1306   -1.3209 C.3     1  NONAME1    -0.0436
      2 C2         -3.5749    4.9525   -1.4985 C.3     1  NONAME1    -0.0251
      3 C3         -4.1143    4.4412   -0.1546 C.3     1  NONAME1     0.0706
      4 C4         -2.9377    3.8776    0.7331 C.3     1  NONAME1     0.0127
      5 C5         -1.6958    4.7936    0.5939 C.2     1  NONAME1    -0.0593
      6 C6         -2.0163    6.2147    0.1029 C.3     1  NONAME1    -0.0134
      7 C7         -0.8046    7.2112    0.2993 C.3     1  NONAME1    -0.0195
      8 C8         -0.4233    4.3926    0.8303 C.2     1  NONAME1    -0.0552
      9 C9          0.8340    5.2030    0.5534 C.3     1  NONAME1     0.0805
     10 C10         0.4658    6.4580   -0.2638 C.3     1  NONAME1     0.0007
     11 C11         0.2666    9.4903   -0.4135 C.3     1  NONAME1    -0.0463
     12 C12        -0.9744    8.5572   -0.4450 C.3     1  NONAME1    -0.0462
     13 C13         1.5968    7.3679   -0.8665 C.3     1  NONAME1    -0.0204
     14 C14         1.6431    8.7985   -0.2281 C.3     1  NONAME1    -0.0232
     15 C15         2.8468    9.4342   -1.0071 C.3     1  NONAME1    -0.0322
     16 C16         3.0684    6.9448   -0.7423 C.3     1  NONAME1    -0.0465
     17 C17         3.8586    8.2389   -1.0731 C.3     1  NONAME1    -0.0489
     18 C18         2.0598    8.7862    1.2755 C.3     1  NONAME1    -0.0588
     19 C19         3.5058   10.7548   -0.4990 C.3     1  NONAME1    -0.0371
     20 H1          0.0768    5.9723   -1.1704 H       1  NONAME1     0.0340
     21 C20        -0.8333    7.5466    1.8237 C.3     1  NONAME1    -0.0587
     22 O1          1.4770    5.5410    1.7747 O.3     1  NONAME1    -0.3754
     23 O2         -5.0972    3.4369   -0.4270 O.3     1  NONAME1    -0.3446
     24 C21         2.4722   11.8789   -0.3430 C.3     1  NONAME1    -0.0619
     25 C22         1.3294    7.3902   -2.4292 C.3     1  NONAME1    -0.0587
     26 C23        -2.6202    2.4151    0.3329 C.3     1  NONAME1    -0.0537
     27 C24        -3.3898    3.8703    2.2070 C.3     1  NONAME1    -0.0537
     28 C25         4.6214   11.1973   -1.4880 C.3     1  NONAME1    -0.0318
     29 C26         5.4590   12.4038   -1.1376 C.2     1  NONAME1    -0.0850
     30 C27         5.7356   12.8611    0.0958 C.2     1  NONAME1    -0.0573
     31 C28         6.5447   14.0836    0.4647 C.3     1  NONAME1     0.0786
     32 C29         6.9508   14.9870   -0.7040 C.3     1  NONAME1    -0.0327
     33 C30         7.7849   13.6706    1.2589 C.3     1  NONAME1    -0.0327
     34 O3          5.7193   14.8605    1.3359 O.3     1  NONAME1    -0.3851
     35 C31         2.3093    4.5101    2.2866 C.3     1  NONAME1     0.0372
     36 O4        -10.3972    1.2057    1.0773 O.3     1  NONAME1    -0.3924
     37 C32        -9.0342    1.1767    0.6591 C.3     1  NONAME1     0.0730
     38 C33        -8.4490    2.5941    0.5890 C.3     1  NONAME1     0.1130
     39 O5         -7.1075    2.4867    0.1135 O.3     1  NONAME1    -0.3405
     40 C34        -6.4088    3.7381    0.0615 C.3     1  NONAME1     0.1882
     41 C35        -7.1444    4.7349   -0.8662 C.3     1  NONAME1     0.1341
     42 O6         -6.5736    6.0547   -0.8274 O.3     1  NONAME1    -0.3841
     43 C36        -8.6072    4.8601   -0.4451 C.3     1  NONAME1     0.1141
     44 O7         -9.3044    5.6817   -1.3982 O.3     1  NONAME1    -0.3864
     45 C37        -9.2840    3.4973   -0.3320 C.3     1  NONAME1     0.1119
     46 O8        -10.6113    3.7192    0.1613 O.3     1  NONAME1    -0.3865
     47 H2         -1.8330    6.0643   -2.0917 H       1  NONAME1     0.0272
     48 H3         -3.1592    7.0579   -1.5221 H       1  NONAME1     0.0272
     49 H4         -4.3956    5.2440   -2.1642 H       1  NONAME1     0.0291
     50 H5         -3.0671    4.1353   -2.0267 H       1  NONAME1     0.0291
     51 H6         -4.5777    5.2832    0.3748 H       1  NONAME1     0.0605
     52 H7         -2.8321    6.5946    0.7344 H       1  NONAME1     0.0351
     53 H8         -0.2342    3.3895    1.1988 H       1  NONAME1     0.0597
     54 H9          1.5080    4.5906   -0.0609 H       1  NONAME1     0.0643
     55 H10         0.2630   10.0677   -1.3468 H       1  NONAME1     0.0271
     56 H11         0.1042   10.2281    0.3804 H       1  NONAME1     0.0271
     57 H12        -1.8366    9.1061   -0.0430 H       1  NONAME1     0.0271
     58 H13        -1.2318    8.3768   -1.4929 H       1  NONAME1     0.0271
     59 H14         2.5116    9.6576   -2.0283 H       1  NONAME1     0.0309
     60 H15         3.3434    6.1273   -1.4174 H       1  NONAME1     0.0271
     61 H16         3.3195    6.6185    0.2715 H       1  NONAME1     0.0271
     62 H17         4.2986    8.1744   -2.0748 H       1  NONAME1     0.0268
     63 H18         4.6844    8.3559   -0.3624 H       1  NONAME1     0.0268
     64 H19         3.1426    8.7064    1.4199 H       1  NONAME1     0.0235
     65 H20         1.6588    7.9401    1.8242 H       1  NONAME1     0.0235
     66 H21         1.7539    9.7044    1.7873 H       1  NONAME1     0.0235
     67 H22         3.9657   10.5724    0.4784 H       1  NONAME1     0.0304
     68 H23        -0.2619    8.4338    2.0894 H       1  NONAME1     0.0235
     69 H24        -1.8535    7.8009    2.1413 H       1  NONAME1     0.0235
     70 H25        -0.5158    6.7208    2.4624 H       1  NONAME1     0.0235
     71 H26         1.8961   12.0173   -1.2640 H       1  NONAME1     0.0233
     72 H27         2.9385   12.8377   -0.0997 H       1  NONAME1     0.0233
     73 H28         1.7777   11.6680    0.4726 H       1  NONAME1     0.0233
     74 H29         0.3801    7.8578   -2.6934 H       1  NONAME1     0.0235
     75 H30         2.1037    7.8989   -3.0096 H       1  NONAME1     0.0235
     76 H31         1.3122    6.3660   -2.8249 H       1  NONAME1     0.0235
     77 H32        -2.2361    2.3537   -0.6911 H       1  NONAME1     0.0239
     78 H33        -3.5081    1.7760    0.3962 H       1  NONAME1     0.0239
     79 H34        -1.8768    1.9597    0.9963 H       1  NONAME1     0.0239
     80 H35        -4.2742    3.2389    2.3476 H       1  NONAME1     0.0239
     81 H36        -2.6021    3.4847    2.8649 H       1  NONAME1     0.0239
     82 H37        -3.6422    4.8789    2.5541 H       1  NONAME1     0.0239
     83 H38         4.1481   11.4057   -2.4574 H       1  NONAME1     0.0310
     84 H39         5.3214   10.3726   -1.6651 H       1  NONAME1     0.0310
     85 H40         5.8694   12.9199   -2.0036 H       1  NONAME1     0.0570
     86 H41         5.3455   12.3183    0.9559 H       1  NONAME1     0.0597
     87 H42         7.6296   14.4804   -1.3980 H       1  NONAME1     0.0260
     88 H43         7.4499   15.8920   -0.3377 H       1  NONAME1     0.0260
     89 H44         6.0719   15.3319   -1.2618 H       1  NONAME1     0.0260
     90 H45         7.5119   13.0946    2.1512 H       1  NONAME1     0.0260
     91 H46         8.4699   13.0664    0.6543 H       1  NONAME1     0.0260
     92 H47         8.3279   14.5521    1.6197 H       1  NONAME1     0.0260
     93 H48         4.8866   15.0265    0.8610 H       1  NONAME1     0.2106
     94 H49         1.7275    3.6159    2.5263 H       1  NONAME1     0.0524
     95 H50         2.7751    4.8739    3.2066 H       1  NONAME1     0.0524
     96 H51         3.1015    4.2650    1.5727 H       1  NONAME1     0.0524
     97 H52       -10.6677    0.2758    1.1975 H       1  NONAME1     0.2095
     98 H53        -8.9773    0.6853   -0.3186 H       1  NONAME1     0.0584
     99 H54        -8.4584    0.5685    1.3655 H       1  NONAME1     0.0584
    100 H55        -8.4505    3.0082    1.6063 H       1  NONAME1     0.0647
    101 H56        -6.3295    4.1295    1.0839 H       1  NONAME1     0.0937
    102 H57        -7.0747    4.3960   -1.9070 H       1  NONAME1     0.0671
    103 H58        -7.1992    6.6101   -1.3363 H       1  NONAME1     0.2101
    104 H59        -8.6781    5.3998    0.5082 H       1  NONAME1     0.0648
    105 H60       -10.2514    5.5764   -1.1698 H       1  NONAME1     0.2100
    106 H61        -9.3779    3.0537   -1.3308 H       1  NONAME1     0.0647
    107 H62       -10.9255    2.8541    0.5089 H       1  NONAME1     0.2100
@<TRIPOS>BOND
     1     1     2    1
     2     2     3    1
     3     3     4    1
     4     4     5    1
     5     5     6    1
     6     1     6    1
     7     8     9    1
     8     9    10    1
     9     7    10    1
    10     5     8    2
    11     7     6    1
    12    11    12    1
    13    13    14    1
    14    11    14    1
    15    12     7    1
    16    10    13    1
    17    16    17    1
    18    15    17    1
    19    15    14    1
    20    13    16    1
    21    14    18    1
    22    15    19    1
    23    10    20    1
    24     7    21    1
    25     9    22    1
    26     3    23    1
    27    19    24    1
    28    13    25    1
    29     4    26    1
    30     4    27    1
    31    19    28    1
    32    28    29    1
    33    29    30    2
    34    30    31    1
    35    31    32    1
    36    31    33    1
    37    31    34    1
    38    22    35    1
    39    36    37    1
    40    38    37    1
    41    38    39    1
    42    40    39    1
    43    41    40    1
    44    41    42    1
    45    41    43    1
    46    43    44    1
    47    43    45    1
    48    45    38    1
    49    45    46    1
    50    40    23    1
    51     1    47    1
    52     1    48    1
    53     2    49    1
    54     2    50    1
    55     3    51    1
    56     6    52    1
    57     8    53    1
    58     9    54    1
    59    11    55    1
    60    11    56    1
    61    12    57    1
    62    12    58    1
    63    15    59    1
    64    16    60    1
    65    16    61    1
    66    17    62    1
    67    17    63    1
    68    18    64    1
    69    18    65    1
    70    18    66    1
    71    19    67    1
    72    21    68    1
    73    21    69    1
    74    21    70    1
    75    24    71    1
    76    24    72    1
    77    24    73    1
    78    25    74    1
    79    25    75    1
    80    25    76    1
    81    26    77    1
    82    26    78    1
    83    26    79    1
    84    27    80    1
    85    27    81    1
    86    27    82    1
    87    28    83    1
    88    28    84    1
    89    29    85    1
    90    30    86    1
    91    32    87    1
    92    32    88    1
    93    32    89    1
    94    33    90    1
    95    33    91    1
    96    33    92    1
    97    34    93    1
    98    35    94    1
    99    35    95    1
   100    35    96    1
   101    36    97    1
   102    37    98    1
   103    37    99    1
   104    38   100    1
   105    40   101    1
   106    41   102    1
   107    42   103    1
   108    43   104    1
   109    44   105    1
   110    45   106    1
   111    46   107    1
