@<TRIPOS>MOLECULE
*****
 131 137 0 0 0
SMALL
USER_CHARGES

@<TRIPOS>ATOM
      1 C1         -1.9669    8.0335   -1.5720 C.3     1  NONAME1    -0.0432
      2 C2         -3.4056    8.0474   -1.0899 C.3     1  NONAME1    -0.0255
      3 C3         -4.0799    6.6664   -1.0790 C.3     1  NONAME1     0.0705
      4 C4         -3.0839    5.4637   -0.8570 C.3     1  NONAME1     0.0316
      5 C5         -1.7969    5.9377   -0.0999 C.3     1  NONAME1     0.1271
      6 C6         -1.0326    7.0705   -0.8015 C.3     1  NONAME1     0.0158
      7 C7         -0.2466    7.6554    0.4148 C.3     1  NONAME1     0.0799
      8 C8         -0.8437    4.7895    0.3095 C.3     1  NONAME1     0.0147
      9 C9          0.6370    5.2028    0.3523 C.3     1  NONAME1     0.0663
     10 C10         0.8343    6.6257    0.9451 C.3     1  NONAME1     0.0074
     11 C11         1.5949    9.6037    0.7599 C.3     1  NONAME1    -0.0458
     12 C12         0.2495    9.1098    0.1738 C.3     1  NONAME1    -0.0360
     13 C13         2.2864    7.1822    0.8000 C.3     1  NONAME1    -0.0202
     14 C14         2.3953    8.5643    1.5413 C.3     1  NONAME1    -0.0232
     15 C15         3.9453    8.7590    1.7938 C.3     1  NONAME1    -0.0322
     16 C16         3.3968    6.3784    1.5027 C.3     1  NONAME1    -0.0465
     17 C17         4.5710    7.3597    1.5736 C.3     1  NONAME1    -0.0489
     18 C18         1.7846    8.5543    2.9849 C.3     1  NONAME1    -0.0588
     19 C19         4.7834    9.9500    1.2349 C.3     1  NONAME1    -0.0371
     20 H1          0.6721    6.4838    2.0234 H       1  NONAME1     0.0342
     21 C20        -1.3850    7.6150    1.4322 C.2     1  NONAME1     0.3146
     22 O1          1.3779    4.2720    1.1489 O.3     1  NONAME1    -0.3793
     23 O2         -5.0887    6.6571   -0.0548 O.3     1  NONAME1    -0.3448
     24 C21         4.2097   11.2979    1.7033 C.3     1  NONAME1    -0.0619
     25 C22         2.6636    7.2468   -0.7109 C.3     1  NONAME1    -0.0587
     26 C23        -3.7948    4.3313   -0.0695 C.3     1  NONAME1    -0.0538
     27 C24        -2.7223    4.8694   -2.2448 C.3     1  NONAME1    -0.0538
     28 C25         5.0659    9.9541   -0.2841 C.3     1  NONAME1    -0.0318
     29 C26         6.0821   10.9342   -0.8289 C.2     1  NONAME1    -0.0850
     30 C27         7.0540   11.5675   -0.1491 C.2     1  NONAME1    -0.0571
     31 C28         8.0825   12.5438   -0.6921 C.3     1  NONAME1     0.0816
     32 C29         8.0945   12.7230   -2.2188 C.3     1  NONAME1    -0.0325
     33 C30         7.8028   13.9143   -0.0524 C.3     1  NONAME1    -0.0325
     34 O3          9.3789   12.1583   -0.1996 O.3     1  NONAME1    -0.3731
     35 C31         1.6131    3.0217    0.5157 C.3     1  NONAME1     0.0368
     36 O4         -4.7314   11.0314    0.3438 O.3     1  NONAME1    -0.3460
     37 C32        -6.1434   10.8762    0.1536 C.3     1  NONAME1     0.0796
     38 C33        -6.5164    9.4203    0.4676 C.3     1  NONAME1     0.1134
     39 O5         -6.2686    8.6191   -0.7023 O.3     1  NONAME1    -0.3405
     40 C34        -6.3433    7.2160   -0.4521 C.3     1  NONAME1     0.1882
     41 C35        -7.3735    6.8487    0.6429 C.3     1  NONAME1     0.1341
     42 O6         -7.8898    5.5194    0.4620 O.3     1  NONAME1    -0.3841
     43 C36        -8.5145    7.8550    0.5884 C.3     1  NONAME1     0.1141
     44 O7         -9.5418    7.5140    1.5299 O.3     1  NONAME1    -0.3864
     45 C37        -7.9910    9.2652    0.8987 C.3     1  NONAME1     0.1119
     46 O8         -8.8490   10.2159    0.2517 O.3     1  NONAME1    -0.3865
     47 O9         -2.2067    6.5609    1.1410 O.3     1  NONAME1    -0.4566
     48 O10        -1.5614    8.3614    2.3794 O.2     1  NONAME1    -0.2502
     49 O11         0.0395   13.3169   -2.4043 O.3     1  NONAME1    -0.3924
     50 C38        -0.6676   12.4025   -1.5729 C.3     1  NONAME1     0.0730
     51 C39        -2.0850   12.8932   -1.2447 C.3     1  NONAME1     0.1130
     52 O12        -2.7987   11.8430   -0.5857 O.3     1  NONAME1    -0.3405
     53 C40        -4.1641   12.1763   -0.2930 C.3     1  NONAME1     0.1880
     54 C41        -4.2198   13.4099    0.6401 C.3     1  NONAME1     0.1341
     55 O13        -5.5530   13.8767    0.8977 O.3     1  NONAME1    -0.3841
     56 C42        -3.4566   14.5673   -0.0053 C.3     1  NONAME1     0.1141
     57 O14        -3.4018   15.6930    0.8862 O.3     1  NONAME1    -0.3864
     58 C43        -2.0335   14.1435   -0.3556 C.3     1  NONAME1     0.1119
     59 O15        -1.3585   15.2234   -1.0122 O.3     1  NONAME1    -0.3865
     60 C44         9.9373   10.9799   -0.7642 C.3     1  NONAME1     0.0375
     61 H2         -1.5931    9.0594   -1.5854 H       1  NONAME1     0.0270
     62 H3         -1.9722    7.7353   -2.6282 H       1  NONAME1     0.0270
     63 H4         -3.9772    8.7154   -1.7462 H       1  NONAME1     0.0290
     64 H5         -3.4614    8.5106   -0.0981 H       1  NONAME1     0.0290
     65 H6         -4.5754    6.5150   -2.0472 H       1  NONAME1     0.0603
     66 H7         -0.3297    6.6862   -1.5505 H       1  NONAME1     0.0350
     67 H8         -0.9167    3.9500   -0.3879 H       1  NONAME1     0.0329
     68 H9         -1.1350    4.3868    1.2892 H       1  NONAME1     0.0329
     69 H10         1.0295    5.1733   -0.6700 H       1  NONAME1     0.0600
     70 H11         2.1824    9.9775   -0.0822 H       1  NONAME1     0.0271
     71 H12         1.3959   10.4855    1.3821 H       1  NONAME1     0.0271
     72 H13        -0.5282    9.8251    0.4730 H       1  NONAME1     0.0276
     73 H14         0.3588    9.2574   -0.9084 H       1  NONAME1     0.0276
     74 H15         4.0625    8.9047    2.8803 H       1  NONAME1     0.0309
     75 H16         3.6874    5.4728    0.9602 H       1  NONAME1     0.0271
     76 H17         3.0986    6.0699    2.5106 H       1  NONAME1     0.0271
     77 H18         5.1555    7.3043    0.6520 H       1  NONAME1     0.0268
     78 H19         5.2506    7.0934    2.3909 H       1  NONAME1     0.0268
     79 H20         2.1893    7.7496    3.6068 H       1  NONAME1     0.0235
     80 H21         0.7027    8.4576    2.9946 H       1  NONAME1     0.0235
     81 H22         2.0018    9.5004    3.4975 H       1  NONAME1     0.0235
     82 H23         5.7582    9.8446    1.7333 H       1  NONAME1     0.0304
     83 H24         4.9679   12.0859    1.6668 H       1  NONAME1     0.0233
     84 H25         3.3779   11.6305    1.0777 H       1  NONAME1     0.0233
     85 H26         3.8623   11.2436    2.7401 H       1  NONAME1     0.0233
     86 H27         1.8728    7.6638   -1.3367 H       1  NONAME1     0.0235
     87 H28         2.8824    6.2479   -1.1051 H       1  NONAME1     0.0235
     88 H29         3.5513    7.8472   -0.8979 H       1  NONAME1     0.0235
     89 H30        -4.7443    4.0598   -0.5459 H       1  NONAME1     0.0237
     90 H31        -4.0079    4.6244    0.9642 H       1  NONAME1     0.0237
     91 H32        -3.1882    3.4202   -0.0302 H       1  NONAME1     0.0237
     92 H33        -3.6273    4.5523   -2.7773 H       1  NONAME1     0.0237
     93 H34        -2.2042    5.5833   -2.8885 H       1  NONAME1     0.0237
     94 H35        -2.0853    3.9838   -2.1623 H       1  NONAME1     0.0237
     95 H36         4.1330   10.1449   -0.8228 H       1  NONAME1     0.0310
     96 H37         5.4156    8.9690   -0.6056 H       1  NONAME1     0.0310
     97 H38         5.9893   11.1043   -1.9002 H       1  NONAME1     0.0570
     98 H39         7.1612   11.3829    0.9182 H       1  NONAME1     0.0597
     99 H40         8.2190   11.7677   -2.7407 H       1  NONAME1     0.0260
    100 H41         7.1674   13.1813   -2.5806 H       1  NONAME1     0.0260
    101 H42         8.9333   13.3582   -2.5267 H       1  NONAME1     0.0260
    102 H43         8.5636   14.6450   -0.3522 H       1  NONAME1     0.0260
    103 H44         6.8192   14.3046   -0.3369 H       1  NONAME1     0.0260
    104 H45         7.8479   13.8599    1.0424 H       1  NONAME1     0.0260
    105 H46         0.6777    2.4760    0.3672 H       1  NONAME1     0.0524
    106 H47         2.2560    2.4255    1.1691 H       1  NONAME1     0.0524
    107 H48         2.1268    3.1630   -0.4399 H       1  NONAME1     0.0524
    108 H49        -6.6528   11.5488    0.8466 H       1  NONAME1     0.0587
    109 H50        -6.4174   11.1231   -0.8782 H       1  NONAME1     0.0587
    110 H51        -5.8591    9.0479    1.2652 H       1  NONAME1     0.0647
    111 H52        -6.6481    6.7342   -1.3893 H       1  NONAME1     0.0937
    112 H53        -6.9151    6.8553    1.6400 H       1  NONAME1     0.0671
    113 H54        -7.1133    4.9284    0.5106 H       1  NONAME1     0.2101
    114 H55        -8.9973    7.8244   -0.3966 H       1  NONAME1     0.0648
    115 H56        -9.6576    6.5458    1.4368 H       1  NONAME1     0.2100
    116 H57        -8.0650    9.4847    1.9709 H       1  NONAME1     0.0647
    117 H58        -9.7558    9.9943    0.5415 H       1  NONAME1     0.2100
    118 H59        -0.1344   14.2157   -2.0492 H       1  NONAME1     0.2095
    119 H60        -0.0879   12.2408   -0.6571 H       1  NONAME1     0.0584
    120 H61        -0.7113   11.4395   -2.0918 H       1  NONAME1     0.0584
    121 H62        -2.5832   13.1345   -2.1935 H       1  NONAME1     0.0647
    122 H63        -4.6840   12.3693   -1.2398 H       1  NONAME1     0.0937
    123 H64        -3.7735   13.1733    1.6143 H       1  NONAME1     0.0671
    124 H65        -5.9077   13.3115    1.6082 H       1  NONAME1     0.2101
    125 H66        -3.9806   14.9265   -0.9002 H       1  NONAME1     0.0648
    126 H67        -4.3256   15.8263    1.1814 H       1  NONAME1     0.2100
    127 H68        -1.4803   13.9348    0.5689 H       1  NONAME1     0.0647
    128 H69        -1.5659   16.0139   -0.4693 H       1  NONAME1     0.2100
    129 H70         9.2482   10.1332   -0.7044 H       1  NONAME1     0.0524
    130 H71        10.8359   10.7280   -0.1936 H       1  NONAME1     0.0524
    131 H72        10.2399   11.1528   -1.8005 H       1  NONAME1     0.0524
@<TRIPOS>BOND
     1     1     2    1
     2     2     3    1
     3     3     4    1
     4     4     5    1
     5     5     6    1
     6     1     6    1
     7     8     9    1
     8     9    10    1
     9     7    10    1
    10     5     8    1
    11     7     6    1
    12    11    12    1
    13    13    14    1
    14    11    14    1
    15    12     7    1
    16    10    13    1
    17    16    17    1
    18    15    17    1
    19    15    14    1
    20    13    16    1
    21    14    18    1
    22    15    19    1
    23    10    20    1
    24     7    21    1
    25     9    22    1
    26     3    23    1
    27    19    24    1
    28    13    25    1
    29     4    26    1
    30     4    27    1
    31    19    28    1
    32    28    29    1
    33    29    30    2
    34    30    31    1
    35    31    32    1
    36    31    33    1
    37    31    34    1
    38    22    35    1
    39    36    37    1
    40    38    37    1
    41    38    39    1
    42    40    39    1
    43    41    40    1
    44    41    42    1
    45    41    43    1
    46    43    44    1
    47    43    45    1
    48    45    38    1
    49    45    46    1
    50    40    23    1
    51    21    47    1
    52     5    47    1
    53    21    48    2
    54    49    50    1
    55    51    50    1
    56    51    52    1
    57    53    52    1
    58    54    53    1
    59    54    55    1
    60    54    56    1
    61    56    57    1
    62    56    58    1
    63    58    51    1
    64    58    59    1
    65    53    36    1
    66    34    60    1
    67     1    61    1
    68     1    62    1
    69     2    63    1
    70     2    64    1
    71     3    65    1
    72     6    66    1
    73     8    67    1
    74     8    68    1
    75     9    69    1
    76    11    70    1
    77    11    71    1
    78    12    72    1
    79    12    73    1
    80    15    74    1
    81    16    75    1
    82    16    76    1
    83    17    77    1
    84    17    78    1
    85    18    79    1
    86    18    80    1
    87    18    81    1
    88    19    82    1
    89    24    83    1
    90    24    84    1
    91    24    85    1
    92    25    86    1
    93    25    87    1
    94    25    88    1
    95    26    89    1
    96    26    90    1
    97    26    91    1
    98    27    92    1
    99    27    93    1
   100    27    94    1
   101    28    95    1
   102    28    96    1
   103    29    97    1
   104    30    98    1
   105    32    99    1
   106    32   100    1
   107    32   101    1
   108    33   102    1
   109    33   103    1
   110    33   104    1
   111    35   105    1
   112    35   106    1
   113    35   107    1
   114    37   108    1
   115    37   109    1
   116    38   110    1
   117    40   111    1
   118    41   112    1
   119    42   113    1
   120    43   114    1
   121    44   115    1
   122    45   116    1
   123    46   117    1
   124    49   118    1
   125    50   119    1
   126    50   120    1
   127    51   121    1
   128    53   122    1
   129    54   123    1
   130    55   124    1
   131    56   125    1
   132    57   126    1
   133    58   127    1
   134    59   128    1
   135    60   129    1
   136    60   130    1
   137    60   131    1
