@<TRIPOS>MOLECULE
*****
 105 110 0 0 0
SMALL
USER_CHARGES

@<TRIPOS>ATOM
      1 C          -7.4495   -2.4110    0.5476 C.3     1  NONAME1     0.0007
      2 C          -8.5170   -2.5589    1.6774 C.3     1  NONAME1    -0.0443
      3 C          -8.5659   -3.9779    2.2330 C.3     1  NONAME1    -0.0256
      4 C          -8.9011   -4.9830    1.1046 C.3     1  NONAME1     0.0668
      5 C          -7.7388   -4.9738    0.0638 C.3     1  NONAME1     0.0242
      6 C          -7.5653   -3.5172   -0.5402 C.3     1  NONAME1     0.0984
      7 C          -6.3552   -3.4368   -1.4671 C.2     1  NONAME1    -0.0554
      8 C          -5.9095   -2.2530   -1.8964 C.2     1  NONAME1    -0.0810
      9 C          -6.5137   -0.9546   -1.4031 C.3     1  NONAME1    -0.0088
     10 C          -7.7133   -1.1853   -0.3748 C.3     1  NONAME1     0.0067
     11 C          -7.0359    1.1436    0.7261 C.3     1  NONAME1    -0.0462
     12 C          -8.1646    0.1692    0.2960 C.3     1  NONAME1    -0.0438
     13 C          -5.4089    0.0189   -0.8393 C.3     1  NONAME1    -0.0196
     14 C          -6.0664    1.4081   -0.4678 C.3     1  NONAME1    -0.0230
     15 C          -4.7931    2.2924   -0.2141 C.3     1  NONAME1    -0.0322
     16 C          -4.3615    0.4646   -1.8636 C.3     1  NONAME1    -0.0463
     17 C          -3.7548    1.7496   -1.2545 C.3     1  NONAME1    -0.0489
     18 C          -8.0655   -5.9954   -1.0585 C.3     1  NONAME1    -0.0545
     19 C          -6.4396   -5.4565    0.7728 C.3     1  NONAME1    -0.0545
     20 C          -4.7660    3.8657   -0.0922 C.3     1  NONAME1    -0.0371
     21 C          -5.5942    4.3791    1.1091 C.3     1  NONAME1    -0.0318
     22 C          -5.4889    5.8811    1.2450 C.2     1  NONAME1    -0.0850
     23 C          -6.5841    6.6647    1.2658 C.2     1  NONAME1    -0.0571
     24 C          -6.5314    8.1889    1.3183 C.3     1  NONAME1     0.0816
     25 C          -5.8192    8.7526    0.0597 C.3     1  NONAME1    -0.0325
     26 C          -5.7360    8.6396    2.5560 C.3     1  NONAME1    -0.0325
     27 O          -7.8457    8.7222    1.4811 O.3     1  NONAME1    -0.3731
     28 C          -6.8839    2.0809   -1.6262 C.3     1  NONAME1    -0.0588
     29 H          -6.9189   -0.4691   -2.3095 H       1  NONAME1     0.0355
     30 C          -8.9077   -1.7792   -1.1607 C.3     1  NONAME1     0.0554
     31 O          -8.6869   -3.1647   -1.3345 O.3     1  NONAME1    -0.3679
     32 O         -10.1133   -4.6544    0.4396 O.3     1  NONAME1    -0.3733
     33 C          -4.6019   -0.6694    0.3267 C.3     1  NONAME1    -0.0585
     34 C          -5.1044    4.6524   -1.3882 C.3     1  NONAME1    -0.0619
     35 H          -9.0589   -1.2641   -2.1329 H       1  NONAME1     0.0566
     36 C         -11.2682   -4.8947    1.2201 C.3     1  NONAME1     0.0768
     37 C         -12.3057   -5.6508    0.3798 C.3     1  NONAME1     0.1133
     38 O         -13.5267   -5.7080    1.1017 O.3     1  NONAME1    -0.3407
     39 C         -14.5609   -6.2390    0.2850 C.3     1  NONAME1     0.1854
     40 O         -15.7708   -6.1779    0.9887 O.3     1  NONAME1    -0.3649
     41 C         -14.2571   -7.7100   -0.0649 C.3     1  NONAME1     0.1339
     42 O         -15.2668   -8.2381   -0.8858 O.3     1  NONAME1    -0.3841
     43 C         -12.9089   -7.7730   -0.8045 C.3     1  NONAME1     0.1141
     44 O         -12.5389   -9.1040   -1.0590 O.3     1  NONAME1    -0.3864
     45 C         -11.8248   -7.0826    0.0410 C.3     1  NONAME1     0.1119
     46 O         -11.6102   -7.7973    1.2348 O.3     1  NONAME1    -0.3865
     47 C          -8.6658    8.6239    0.3319 C.3     1  NONAME1     0.0375
     48 H          -6.4740   -2.4825    1.0525 H       1  NONAME1     0.0338
     49 H          -8.2820   -1.8408    2.4925 H       1  NONAME1     0.0270
     50 H          -9.5449   -2.3330    1.3417 H       1  NONAME1     0.0270
     51 H          -9.3210   -4.0328    3.0457 H       1  NONAME1     0.0290
     52 H          -9.3210   -4.0328    3.0457 H       1  NONAME1     0.0290
     53 H          -8.9627   -6.0145    1.5263 H       1  NONAME1     0.0602
     54 H          -5.8353   -4.3236   -1.8086 H       1  NONAME1     0.0598
     55 H          -5.0702   -2.2236   -2.5842 H       1  NONAME1     0.0573
     56 H          -6.5037    0.7365    1.6052 H       1  NONAME1     0.0271
     57 H          -7.5078    2.0813    1.0753 H       1  NONAME1     0.0271
     58 H          -8.7877    0.7157   -0.4359 H       1  NONAME1     0.0272
     59 H          -8.8638   -0.0028    1.1384 H       1  NONAME1     0.0272
     60 H          -4.4299    1.9429    0.7760 H       1  NONAME1     0.0309
     61 H          -3.6087   -0.2892   -2.1793 H       1  NONAME1     0.0271
     62 H          -4.8978    0.7493   -2.7918 H       1  NONAME1     0.0271
     63 H          -3.4970    2.4209   -2.0953 H       1  NONAME1     0.0268
     64 H          -2.8086    1.5443   -0.7073 H       1  NONAME1     0.0268
     65 H          -7.2489   -6.0687   -1.8046 H       1  NONAME1     0.0237
     66 H          -8.9916   -5.7144   -1.6032 H       1  NONAME1     0.0237
     67 H          -8.2165   -7.0107   -0.6325 H       1  NONAME1     0.0237
     68 H          -5.5860   -5.5342    0.0700 H       1  NONAME1     0.0237
     69 H          -6.5898   -6.4681    1.2087 H       1  NONAME1     0.0237
     70 H          -6.1347   -4.7765    1.5937 H       1  NONAME1     0.0237
     71 H          -3.7034    4.1190    0.1262 H       1  NONAME1     0.0304
     72 H          -5.2048    3.9111    2.0385 H       1  NONAME1     0.0310
     73 H          -6.6560    4.0928    0.9873 H       1  NONAME1     0.0310
     74 H          -4.4979    6.3204    1.2993 H       1  NONAME1     0.0570
     75 H          -7.5598    6.1889    1.2343 H       1  NONAME1     0.0597
     76 H          -4.7713    8.3895   -0.0021 H       1  NONAME1     0.0260
     77 H          -5.8028    9.8630    0.0882 H       1  NONAME1     0.0260
     78 H          -6.3286    8.4323   -0.8740 H       1  NONAME1     0.0260
     79 H          -4.6827    8.2891    2.5196 H       1  NONAME1     0.0260
     80 H          -6.2070    8.2490    3.4833 H       1  NONAME1     0.0260
     81 H          -5.7201    9.7497    2.6162 H       1  NONAME1     0.0260
     82 H          -6.2580    2.3899   -2.4851 H       1  NONAME1     0.0235
     83 H          -7.6933    1.4726   -2.0594 H       1  NONAME1     0.0235
     84 H          -7.4045    2.9719   -1.2261 H       1  NONAME1     0.0235
     85 H          -9.8669   -1.6657   -0.6166 H       1  NONAME1     0.0566
     86 H          -4.1605   -1.6269   -0.0205 H       1  NONAME1     0.0235
     87 H          -5.1948   -0.8770    1.2255 H       1  NONAME1     0.0235
     88 H          -3.7404   -0.0806    0.6930 H       1  NONAME1     0.0235
     89 H          -4.5048    4.3173   -2.2538 H       1  NONAME1     0.0233
     90 H          -6.1718    4.6268   -1.6570 H       1  NONAME1     0.0233
     91 H          -4.8593    5.7270   -1.2586 H       1  NONAME1     0.0233
     92 H         -11.6900   -3.9064    1.5059 H       1  NONAME1     0.0587
     93 H         -11.0816   -5.4603    2.1619 H       1  NONAME1     0.0587
     94 H         -12.4469   -5.0558   -0.5549 H       1  NONAME1     0.0647
     95 H         -14.6714   -5.6483   -0.6587 H       1  NONAME1     0.0935
     96 H         -16.0137   -5.2165    1.0470 H       1  NONAME1     0.2126
     97 H         -14.1738   -8.3062    0.8752 H       1  NONAME1     0.0671
     98 H         -16.0078   -8.5198   -0.2882 H       1  NONAME1     0.2101
     99 H         -12.9875   -7.2119   -1.7669 H       1  NONAME1     0.0648
    100 H         -13.0585   -9.4024   -1.8503 H       1  NONAME1     0.2100
    101 H         -10.8775   -7.0237   -0.5428 H       1  NONAME1     0.0647
    102 H         -10.9490   -8.5094    1.0326 H       1  NONAME1     0.2100
    103 H          -9.7246    8.6818    0.6584 H       1  NONAME1     0.0524
    104 H          -8.4779    9.4786   -0.3515 H       1  NONAME1     0.0524
    105 H          -8.5615    7.6572   -0.2053 H       1  NONAME1     0.0524
@<TRIPOS>BOND
     1     1     2    1
     2     2     3    1
     3     3     4    1
     4     4     5    1
     5     5     6    1
     6     7     8    2
     7     8     9    1
     8     9    10    1
     9     1     6    1
    10     1    10    1
    11     6     7    1
    12    11    12    1
    13    13    14    1
    14    11    14    1
    15     9    13    1
    16    12    10    1
    17    16    17    1
    18    15    17    1
    19    15    14    1
    20    13    16    1
    21     5    18    1
    22     5    19    1
    23    20    21    1
    24    21    22    1
    25    22    23    2
    26    23    24    1
    27    24    25    1
    28    24    26    1
    29    24    27    1
    30    15    20    1
    31    14    28    1
    32     9    29    1
    33    10    30    1
    34     6    31    1
    35     4    32    1
    36    30    31    1
    37    13    33    1
    38    20    34    1
    39    30    35    1
    40    37    36    1
    41    37    38    1
    42    39    38    1
    43    39    40    1
    44    41    39    1
    45    41    42    1
    46    41    43    1
    47    43    44    1
    48    43    45    1
    49    45    37    1
    50    45    46    1
    51    36    32    1
    52    47    27    1
    53     1    48    1
    54     2    49    1
    55     2    50    1
    56     3    51    1
    57     3    52    1
    58     4    53    1
    59     7    54    1
    60     8    55    1
    61    11    56    1
    62    11    57    1
    63    12    58    1
    64    12    59    1
    65    15    60    1
    66    16    61    1
    67    16    62    1
    68    17    63    1
    69    17    64    1
    70    18    65    1
    71    18    66    1
    72    18    67    1
    73    19    68    1
    74    19    69    1
    75    19    70    1
    76    20    71    1
    77    21    72    1
    78    21    73    1
    79    22    74    1
    80    23    75    1
    81    25    76    1
    82    25    77    1
    83    25    78    1
    84    26    79    1
    85    26    80    1
    86    26    81    1
    87    28    82    1
    88    28    83    1
    89    28    84    1
    90    30    85    1
    91    33    86    1
    92    33    87    1
    93    33    88    1
    94    34    89    1
    95    34    90    1
    96    34    91    1
    97    36    92    1
    98    36    93    1
    99    37    94    1
   100    39    95    1
   101    40    96    1
   102    41    97    1
   103    42    98    1
   104    43    99    1
   105    44   100    1
   106    45   101    1
   107    46   102    1
   108    47   103    1
   109    47   104    1
   110    47   105    1
