@<TRIPOS>MOLECULE
*****
 133 138 0 0 0
SMALL
USER_CHARGES

@<TRIPOS>ATOM
      1 C           5.2286   -2.4878   -1.2039 C.3     1  NONAME1    -0.0463
      2 C           4.1659   -3.5849   -1.4077 C.3     1  NONAME1    -0.0463
      3 C           3.6960   -4.3740    0.0000 C.3     1  NONAME1    -0.0219
      4 C           5.0297   -5.1440    0.0000 C.3     1  NONAME1    -0.0257
      5 C           6.3965   -4.3057    0.1330 C.3     1  NONAME1    -0.0228
      6 C           6.2232   -2.7496   -0.0537 C.3     1  NONAME1    -0.0233
      7 C           2.7907   -5.8603   -0.5482 C.3     1  NONAME1    -0.0136
      8 C           2.6558   -6.8431    0.6097 C.2     1  NONAME1    -0.0617
      9 C           3.7123   -6.9246    1.4273 C.2     1  NONAME1    -0.0836
     10 C           4.9451   -6.1158    1.2395 C.3     1  NONAME1    -0.0306
     11 C           1.4479   -5.7511   -1.3293 C.3     1  NONAME1    -0.0436
     12 C           0.7886   -7.0916   -1.6864 C.3     1  NONAME1    -0.0251
     13 C           0.9914   -8.2342   -0.6767 C.3     1  NONAME1     0.0705
     14 C           1.4116   -7.7428    0.7428 C.3     1  NONAME1     0.0127
     15 C           7.7098   -2.3394   -0.3596 C.3     1  NONAME1    -0.0324
     16 C           7.3308   -4.6587   -1.0698 C.3     1  NONAME1    -0.0466
     17 C           8.2024   -3.4291   -1.3273 C.3     1  NONAME1    -0.0489
     18 C           8.2800   -0.9456   -0.7322 C.3     1  NONAME1    -0.0381
     19 C           5.7179   -2.0554    1.2261 C.3     1  NONAME1    -0.0588
     20 C           2.3623   -3.6040    0.0000 C.3     1  NONAME1    -0.0587
     21 O          -0.1944   -9.0489   -0.5710 O.3     1  NONAME1    -0.3469
     22 C           0.2762   -6.9871    1.4684 C.3     1  NONAME1    -0.0537
     23 C           1.6805   -9.0114    1.6052 C.3     1  NONAME1    -0.0537
     24 C           7.2291   -4.6613    1.4203 C.3     1  NONAME1    -0.0588
     25 C          -0.4996   -9.8739   -1.6952 C.3     1  NONAME1     0.1653
     26 O          -1.8817  -10.2523   -1.6748 O.3     1  NONAME1    -0.3429
     27 C          -2.2628  -11.0709   -0.5472 C.3     1  NONAME1     0.1110
     28 C           0.3825  -11.1352   -1.7873 C.3     1  NONAME1     0.0383
     29 C           0.0860  -12.0516   -0.5759 C.3     1  NONAME1    -0.0058
     30 C          -1.4171  -12.3571   -0.4539 C.3     1  NONAME1     0.0866
     31 C           0.1521  -11.7994   -3.1561 C.3     1  NONAME1     0.0520
     32 C          -3.7950  -11.3206   -0.6632 C.3     1  NONAME1     0.0795
     33 O          -4.1910  -12.6962   -0.6693 O.3     1  NONAME1    -0.3461
     34 O          -1.6260  -12.9903    0.8109 O.3     1  NONAME1    -0.3889
     35 C           0.9163  -13.3393   -0.5515 C.3     1  NONAME1    -0.0595
     36 O           1.1301  -12.7948   -3.4300 O.3     1  NONAME1    -0.3946
     37 O          -9.3567  -13.3646   -0.6709 O.3     1  NONAME1    -0.3924
     38 C          -8.3686  -12.7823    0.1767 C.3     1  NONAME1     0.0730
     39 C          -6.9643  -13.3104   -0.1564 C.3     1  NONAME1     0.1130
     40 O          -6.0502  -12.7306    0.7866 O.3     1  NONAME1    -0.3405
     41 C          -4.6903  -13.1428    0.5957 C.3     1  NONAME1     0.1880
     42 C          -4.5718  -14.6788    0.7058 C.3     1  NONAME1     0.1341
     43 O          -3.2252  -15.1454    0.5041 O.3     1  NONAME1    -0.3841
     44 C          -5.4982  -15.3459   -0.3065 C.3     1  NONAME1     0.1141
     45 O          -5.4449  -16.7726   -0.1197 O.3     1  NONAME1    -0.3864
     46 C          -6.9310  -14.8502   -0.1163 C.3     1  NONAME1     0.1119
     47 O          -7.7407  -15.4556   -1.1327 O.3     1  NONAME1    -0.3865
     48 C           9.1184   -0.3070    0.4306 C.3     1  NONAME1    -0.0215
     49 C          10.4521   -0.9842    0.8860 C.3     1  NONAME1     0.0840
     50 C          11.5907   -0.9728   -0.1766 C.3     1  NONAME1     0.1091
     51 C          12.9105   -1.7188    0.2347 C.3     1  NONAME1     0.0887
     52 C          14.0810   -1.3405   -0.6884 C.3     1  NONAME1    -0.0338
     53 C          12.7622   -3.2480    0.2155 C.3     1  NONAME1    -0.0338
     54 O          13.2908   -1.2838    1.5481 O.3     1  NONAME1    -0.3865
     55 O          11.9008    0.4059   -0.4468 O.3     1  NONAME1    -0.3864
     56 O          10.2165   -2.2748    1.4310 O.3     1  NONAME1    -0.3891
     57 C           7.2316    0.0589   -1.2051 C.3     1  NONAME1    -0.0621
     58 H           4.7146   -1.5315   -1.0472 H       1  NONAME1     0.0271
     59 H           5.7584   -2.3790   -2.1578 H       1  NONAME1     0.0271
     60 H           3.3464   -3.1254   -1.9764 H       1  NONAME1     0.0271
     61 H           4.5383   -4.3153   -2.1418 H       1  NONAME1     0.0271
     62 H           5.1787   -5.8032   -0.8655 H       1  NONAME1     0.0315
     63 H           3.4217   -6.3594   -1.2997 H       1  NONAME1     0.0351
     64 H           3.7323   -7.5998    2.2766 H       1  NONAME1     0.0572
     65 H           5.0402   -5.5437    2.1686 H       1  NONAME1     0.0310
     66 H           5.7651   -6.8407    1.1793 H       1  NONAME1     0.0310
     67 H           0.6939   -5.1960   -0.7650 H       1  NONAME1     0.0272
     68 H           1.6102   -5.1943   -2.2611 H       1  NONAME1     0.0272
     69 H           1.1834   -7.4232   -2.6558 H       1  NONAME1     0.0291
     70 H          -0.2819   -6.9177   -1.8567 H       1  NONAME1     0.0291
     71 H           1.8102   -8.8611   -1.0527 H       1  NONAME1     0.0605
     72 H           8.1906   -2.5299    0.5898 H       1  NONAME1     0.0309
     73 H           7.9426   -5.5462   -0.8704 H       1  NONAME1     0.0271
     74 H           6.7660   -4.8744   -1.9836 H       1  NONAME1     0.0271
     75 H           9.2606   -3.6585   -1.1631 H       1  NONAME1     0.0268
     76 H           8.0965   -3.1141   -2.3717 H       1  NONAME1     0.0268
     77 H           8.9789   -1.0700   -1.5694 H       1  NONAME1     0.0302
     78 H           6.4609   -2.0813    2.0298 H       1  NONAME1     0.0235
     79 H           5.4896   -1.0004    1.0486 H       1  NONAME1     0.0235
     80 H           4.8071   -2.5243    1.6092 H       1  NONAME1     0.0235
     81 H           1.7044   -3.9847    0.7928 H       1  NONAME1     0.0235
     82 H           2.5802   -2.5830    0.3503 H       1  NONAME1     0.0235
     83 H           1.7844   -3.4535   -0.9151 H       1  NONAME1     0.0235
     84 H          -0.0819   -6.1123    0.9243 H       1  NONAME1     0.0239
     85 H          -0.5921   -7.6361    1.6325 H       1  NONAME1     0.0239
     86 H           0.6093   -6.6380    2.4536 H       1  NONAME1     0.0239
     87 H           0.7944   -9.6526    1.6638 H       1  NONAME1     0.0239
     88 H           1.9353   -8.7581    2.6407 H       1  NONAME1     0.0239
     89 H           2.4969   -9.6128    1.1884 H       1  NONAME1     0.0239
     90 H           6.7303   -4.3325    2.3365 H       1  NONAME1     0.0235
     91 H           7.4298   -5.7344    1.4936 H       1  NONAME1     0.0235
     92 H           8.2315   -4.2297    1.4397 H       1  NONAME1     0.0235
     93 H          -0.3791   -9.2758   -2.6041 H       1  NONAME1     0.0913
     94 H          -2.1141  -10.4727    0.3616 H       1  NONAME1     0.0646
     95 H           1.4409  -10.8581   -1.7227 H       1  NONAME1     0.0375
     96 H           0.3831  -11.5046    0.3288 H       1  NONAME1     0.0329
     97 H          -1.7069  -13.0539   -1.2502 H       1  NONAME1     0.0623
     98 H           0.2203  -11.0587   -3.9603 H       1  NONAME1     0.0561
     99 H          -0.8341  -12.2668   -3.2281 H       1  NONAME1     0.0561
    100 H          -4.3239  -10.7667    0.1231 H       1  NONAME1     0.0587
    101 H          -4.1578  -10.9029   -1.6099 H       1  NONAME1     0.0587
    102 H          -2.0205  -13.8723    0.6223 H       1  NONAME1     0.2099
    103 H           0.8384  -13.8312    0.4244 H       1  NONAME1     0.0233
    104 H           0.5760  -14.0585   -1.3028 H       1  NONAME1     0.0233
    105 H           1.9757  -13.1245   -0.7243 H       1  NONAME1     0.0233
    106 H           2.0069  -12.3768   -3.3912 H       1  NONAME1     0.2094
    107 H         -10.1968  -12.9117   -0.4678 H       1  NONAME1     0.2095
    108 H          -8.6270  -13.0055    1.2181 H       1  NONAME1     0.0584
    109 H          -8.3965  -11.6935    0.0594 H       1  NONAME1     0.0584
    110 H          -6.7171  -12.9715   -1.1711 H       1  NONAME1     0.0647
    111 H          -4.0938  -12.6970    1.3996 H       1  NONAME1     0.0937
    112 H          -4.8631  -14.9931    1.7161 H       1  NONAME1     0.0671
    113 H          -3.3253  -16.1098    0.3535 H       1  NONAME1     0.2101
    114 H          -5.1526  -15.1703   -1.3324 H       1  NONAME1     0.0648
    115 H          -6.1858  -17.1174   -0.6606 H       1  NONAME1     0.2100
    116 H          -7.3097  -15.2129    0.8478 H       1  NONAME1     0.0647
    117 H          -8.5695  -14.9274   -1.1737 H       1  NONAME1     0.2100
    118 H           8.4620   -0.2463    1.3094 H       1  NONAME1     0.0294
    119 H           9.3572    0.7285    0.1552 H       1  NONAME1     0.0294
    120 H          10.7983   -0.3749    1.7313 H       1  NONAME1     0.0620
    121 H          11.2288   -1.4088   -1.1140 H       1  NONAME1     0.0648
    122 H          14.9869   -1.8948   -0.4123 H       1  NONAME1     0.0258
    123 H          14.3463   -0.2823   -0.5877 H       1  NONAME1     0.0258
    124 H          13.8538   -1.5531   -1.7372 H       1  NONAME1     0.0258
    125 H          12.1542   -3.6218    1.0422 H       1  NONAME1     0.0258
    126 H          12.3368   -3.5954   -0.7320 H       1  NONAME1     0.0258
    127 H          13.7367   -3.7360    0.3415 H       1  NONAME1     0.0258
    128 H          13.8792   -1.9578    1.9321 H       1  NONAME1     0.2102
    129 H          12.3927    0.7164    0.3399 H       1  NONAME1     0.2100
    130 H          10.1366   -2.9023    0.6959 H       1  NONAME1     0.2099
    131 H           7.7113    0.9973   -1.5064 H       1  NONAME1     0.0233
    132 H           6.6943   -0.3112   -2.0816 H       1  NONAME1     0.0233
    133 H           6.5122    0.3018   -0.4200 H       1  NONAME1     0.0233
@<TRIPOS>BOND
     1     1     2    1
     2     2     3    1
     3     3     4    1
     4     4     5    1
     5     5     6    1
     6     1     6    1
     7     7     8    1
     8     8     9    2
     9     9    10    1
    10     3     7    1
    11    10     4    1
    12    11    12    1
    13    12    13    1
    14    13    14    1
    15    11     7    1
    16    14     8    1
    17    16    17    1
    18    15    17    1
    19    15     6    1
    20     5    16    1
    21    15    18    1
    22     6    19    1
    23     3    20    1
    24    13    21    1
    25    14    22    1
    26    14    23    1
    27     5    24    1
    28    21    25    1
    29    25    26    1
    30    26    27    1
    31    25    28    1
    32    28    29    1
    33    29    30    1
    34    28    31    1
    35    27    32    1
    36    32    33    1
    37    27    30    1
    38    30    34    1
    39    29    35    1
    40    31    36    1
    41    37    38    1
    42    39    38    1
    43    39    40    1
    44    41    40    1
    45    42    41    1
    46    42    43    1
    47    42    44    1
    48    44    45    1
    49    44    46    1
    50    46    39    1
    51    46    47    1
    52    41    33    1
    53    18    48    1
    54    48    49    1
    55    49    50    1
    56    50    51    1
    57    51    52    1
    58    51    53    1
    59    51    54    1
    60    50    55    1
    61    49    56    1
    62    18    57    1
    63     1    58    1
    64     1    59    1
    65     2    60    1
    66     2    61    1
    67     4    62    1
    68     7    63    1
    69     9    64    1
    70    10    65    1
    71    10    66    1
    72    11    67    1
    73    11    68    1
    74    12    69    1
    75    12    70    1
    76    13    71    1
    77    15    72    1
    78    16    73    1
    79    16    74    1
    80    17    75    1
    81    17    76    1
    82    18    77    1
    83    19    78    1
    84    19    79    1
    85    19    80    1
    86    20    81    1
    87    20    82    1
    88    20    83    1
    89    22    84    1
    90    22    85    1
    91    22    86    1
    92    23    87    1
    93    23    88    1
    94    23    89    1
    95    24    90    1
    96    24    91    1
    97    24    92    1
    98    25    93    1
    99    27    94    1
   100    28    95    1
   101    29    96    1
   102    30    97    1
   103    31    98    1
   104    31    99    1
   105    32   100    1
   106    32   101    1
   107    34   102    1
   108    35   103    1
   109    35   104    1
   110    35   105    1
   111    36   106    1
   112    37   107    1
   113    38   108    1
   114    38   109    1
   115    39   110    1
   116    41   111    1
   117    42   112    1
   118    43   113    1
   119    44   114    1
   120    45   115    1
   121    46   116    1
   122    47   117    1
   123    48   118    1
   124    48   119    1
   125    49   120    1
   126    50   121    1
   127    52   122    1
   128    52   123    1
   129    52   124    1
   130    53   125    1
   131    53   126    1
   132    53   127    1
   133    54   128    1
   134    55   129    1
   135    56   130    1
   136    57   131    1
   137    57   132    1
   138    57   133    1
