@<TRIPOS>MOLECULE
*****
 103 107 0 0 0
SMALL
USER_CHARGES

@<TRIPOS>ATOM
      1 C          -6.9110   -5.2905   -0.5198 C.3     1  NONAME1     0.0151
      2 C          -5.6096   -4.4669   -0.5654 C.2     1  NONAME1    -0.0612
      3 C          -5.7861   -2.9641   -0.7172 C.3     1  NONAME1    -0.0045
      4 C          -6.4029   -2.5218    0.6261 C.3     1  NONAME1    -0.0169
      5 C          -7.7781   -3.1966    0.8107 C.3     1  NONAME1     0.0828
      6 C          -7.7051   -4.7474    0.7260 C.3     1  NONAME1     0.0963
      7 C          -4.5078   -2.2002   -1.2685 C.3     1  NONAME1     0.0364
      8 C          -4.4036   -4.9356   -0.2108 C.2     1  NONAME1    -0.0836
      9 C          -3.2778   -4.0107    0.1163 C.3     1  NONAME1    -0.0302
     10 C          -3.1168   -2.8267   -0.8614 C.3     1  NONAME1    -0.0190
     11 C          -3.5038    0.1598   -0.7189 C.3     1  NONAME1     0.0127
     12 C          -4.6933   -0.7125   -0.9784 C.2     1  NONAME1     0.1406
     13 C          -1.9366   -1.8451   -0.4670 C.3     1  NONAME1    -0.0195
     14 C          -2.3978   -0.4775    0.1365 C.3     1  NONAME1    -0.0117
     15 C          -1.0808    0.3835    0.0581 C.3     1  NONAME1     0.0242
     16 C          -1.1535   -1.3445   -1.7150 C.3     1  NONAME1    -0.0203
     17 C          -0.4027   -0.0773   -1.2608 C.3     1  NONAME1     0.0619
     18 C          -1.1992    1.9096    0.2539 C.3     1  NONAME1     0.1186
     19 C           0.1957    2.5142    0.5422 C.2     1  NONAME1     0.1620
     20 C           0.5306    3.8381   -0.1288 C.3     1  NONAME1     0.0110
     21 C           1.8443    4.4303    0.3841 C.3     1  NONAME1    -0.0178
     22 C           2.2446    5.7872   -0.2260 C.3     1  NONAME1     0.0609
     23 O           3.4612    6.1768    0.4233 O.3     1  NONAME1    -0.3891
     24 O          -0.4108    0.8782   -2.3086 O.3     1  NONAME1    -0.3914
     25 C          -7.6622   -5.1534   -1.8588 C.3     1  NONAME1    -0.0536
     26 C          -6.6805   -6.8098   -0.3161 C.3     1  NONAME1    -0.0536
     27 O          -8.9496   -5.4301    0.9503 O.3     1  NONAME1    -0.3420
     28 O          -8.2983   -2.8032    2.0862 O.3     1  NONAME1    -0.3892
     29 C          -4.5888   -2.2872   -2.8278 C.3     1  NONAME1    -0.0520
     30 H          -2.7364   -3.3330   -1.7642 H       1  NONAME1     0.0319
     31 O          -1.8606    2.5040   -0.8576 O.3     1  NONAME1    -0.3839
     32 O           0.9724    1.9656    1.3262 O.2     1  NONAME1    -0.2947
     33 C           1.2066    6.8771    0.0506 C.3     1  NONAME1    -0.0363
     34 C           2.5283    5.6825   -1.7257 C.3     1  NONAME1    -0.0363
     35 O          -5.7934   -0.1669   -1.1323 O.2     1  NONAME1    -0.2968
     36 H          -1.8056    2.1192    1.1427 H       1  NONAME1     0.0676
     37 H          -0.4452    0.0244    0.8785 H       1  NONAME1     0.0361
     38 C          -0.8795   -2.5843    0.4156 C.3     1  NONAME1    -0.0587
     39 H          -6.5644   -2.7809   -1.4682 H       1  NONAME1     0.0356
     40 C          -2.8889   -0.5893    1.5896 C.3     1  NONAME1    -0.0582
     41 O         -13.4759   -1.5451    1.0948 O.3     1  NONAME1    -0.3924
     42 C         -12.2548   -2.1335    1.5359 C.3     1  NONAME1     0.0730
     43 C         -11.8542   -3.3068    0.6311 C.3     1  NONAME1     0.1130
     44 O         -10.6531   -3.8803    1.1581 O.3     1  NONAME1    -0.3405
     45 C         -10.1283   -4.9241    0.3298 C.3     1  NONAME1     0.1884
     46 C         -11.1438   -6.0807    0.2149 C.3     1  NONAME1     0.1341
     47 O         -10.6907   -7.0900   -0.7027 O.3     1  NONAME1    -0.3841
     48 C         -12.4856   -5.5500   -0.2848 C.3     1  NONAME1     0.1141
     49 O         -13.4587   -6.6077   -0.2468 O.3     1  NONAME1    -0.3864
     50 C         -12.9697   -4.3629    0.5476 C.3     1  NONAME1     0.1119
     51 O         -14.1609   -3.8635   -0.0727 O.3     1  NONAME1    -0.3865
     52 H          -5.7479   -2.7679    1.4721 H       1  NONAME1     0.0297
     53 H          -6.5568   -1.4414    0.6908 H       1  NONAME1     0.0297
     54 H          -8.4665   -2.8017    0.0554 H       1  NONAME1     0.0619
     55 H          -7.1186   -5.0446    1.6089 H       1  NONAME1     0.0631
     56 H          -4.2419   -5.9844    0.0210 H       1  NONAME1     0.0572
     57 H          -2.3714   -4.6269    0.1041 H       1  NONAME1     0.0311
     58 H          -3.4105   -3.6567    1.1450 H       1  NONAME1     0.0311
     59 H          -3.8777    1.0642   -0.2219 H       1  NONAME1     0.0347
     60 H          -3.1451    0.4660   -1.7065 H       1  NONAME1     0.0347
     61 H          -0.4499   -2.0978   -2.0893 H       1  NONAME1     0.0296
     62 H          -1.8157   -1.1137   -2.5546 H       1  NONAME1     0.0296
     63 H           0.6481   -0.3173   -1.0631 H       1  NONAME1     0.0597
     64 H          -0.2934    4.5270    0.0803 H       1  NONAME1     0.0343
     65 H           0.5849    3.6582   -1.2066 H       1  NONAME1     0.0343
     66 H           1.7909    4.5355    1.4771 H       1  NONAME1     0.0297
     67 H           2.6590    3.7116    0.2176 H       1  NONAME1     0.0297
     68 H           3.7608    7.0163    0.0346 H       1  NONAME1     0.2101
     69 H          -1.1666    1.4846   -2.1663 H       1  NONAME1     0.2098
     70 H          -8.0789   -4.1539   -2.0123 H       1  NONAME1     0.0239
     71 H          -8.4947   -5.8614   -1.9284 H       1  NONAME1     0.0239
     72 H          -6.9954   -5.3645   -2.7038 H       1  NONAME1     0.0239
     73 H          -7.6282   -7.3609   -0.3228 H       1  NONAME1     0.0239
     74 H          -6.0552   -7.2284   -1.1134 H       1  NONAME1     0.0239
     75 H          -6.1961   -7.0243    0.6434 H       1  NONAME1     0.0239
     76 H          -9.1295   -3.3118    2.1912 H       1  NONAME1     0.2099
     77 H          -5.5178   -1.8479   -3.2116 H       1  NONAME1     0.0239
     78 H          -3.7709   -1.7407   -3.3068 H       1  NONAME1     0.0239
     79 H          -4.5514   -3.3268   -3.1725 H       1  NONAME1     0.0239
     80 H          -2.2314    3.3556   -0.5592 H       1  NONAME1     0.2104
     81 H           1.5805    7.8595   -0.2608 H       1  NONAME1     0.0257
     82 H           0.9995    6.9528    1.1241 H       1  NONAME1     0.0257
     83 H           0.2646    6.6930   -0.4746 H       1  NONAME1     0.0257
     84 H           1.6299    5.4350   -2.2989 H       1  NONAME1     0.0257
     85 H           3.2910    4.9211   -1.9244 H       1  NONAME1     0.0257
     86 H           2.9281    6.6269   -2.1132 H       1  NONAME1     0.0257
     87 H           0.0193   -1.9935    0.6120 H       1  NONAME1     0.0235
     88 H          -1.2811   -2.8727    1.3911 H       1  NONAME1     0.0235
     89 H          -0.5229   -3.4896   -0.0901 H       1  NONAME1     0.0235
     90 H          -3.2351    0.3793    1.9664 H       1  NONAME1     0.0235
     91 H          -2.0967   -0.9262    2.2656 H       1  NONAME1     0.0235
     92 H          -3.7225   -1.2914    1.6789 H       1  NONAME1     0.0235
     93 H         -13.5996   -0.7352    1.6253 H       1  NONAME1     0.2095
     94 H         -12.3786   -2.4668    2.5721 H       1  NONAME1     0.0584
     95 H         -11.4681   -1.3708    1.5281 H       1  NONAME1     0.0584
     96 H         -11.6615   -2.9016   -0.3718 H       1  NONAME1     0.0647
     97 H          -9.9014   -4.5281   -0.6636 H       1  NONAME1     0.0938
     98 H         -11.2670   -6.5732    1.1875 H       1  NONAME1     0.0671
     99 H         -11.4386   -7.7161   -0.7756 H       1  NONAME1     0.2101
    100 H         -12.4062   -5.2659   -1.3421 H       1  NONAME1     0.0648
    101 H         -14.3151   -6.1655   -0.4209 H       1  NONAME1     0.2100
    102 H         -13.2468   -4.7118    1.5500 H       1  NONAME1     0.0647
    103 H         -14.2950   -2.9526    0.2739 H       1  NONAME1     0.2100
@<TRIPOS>BOND
     1     1     2    1
     2     2     3    1
     3     3     4    1
     4     4     5    1
     5     5     6    1
     6     1     6    1
     7     8     9    1
     8     9    10    1
     9     7    10    1
    10     2     8    2
    11     7     3    1
    12    11    12    1
    13    13    14    1
    14    11    14    1
    15    12     7    1
    16    10    13    1
    17    16    17    1
    18    15    17    1
    19    13    16    1
    20    15    14    1
    21    18    19    1
    22    19    20    1
    23    20    21    1
    24    21    22    1
    25    22    23    1
    26    15    18    1
    27    17    24    1
    28     1    25    1
    29     1    26    1
    30     6    27    1
    31     5    28    1
    32     7    29    1
    33    10    30    1
    34    18    31    1
    35    19    32    2
    36    22    33    1
    37    22    34    1
    38    12    35    2
    39    18    36    1
    40    15    37    1
    41    13    38    1
    42     3    39    1
    43    14    40    1
    44    41    42    1
    45    43    42    1
    46    43    44    1
    47    45    44    1
    48    46    45    1
    49    46    47    1
    50    46    48    1
    51    48    49    1
    52    48    50    1
    53    50    43    1
    54    50    51    1
    55    45    27    1
    56     4    52    1
    57     4    53    1
    58     5    54    1
    59     6    55    1
    60     8    56    1
    61     9    57    1
    62     9    58    1
    63    11    59    1
    64    11    60    1
    65    16    61    1
    66    16    62    1
    67    17    63    1
    68    20    64    1
    69    20    65    1
    70    21    66    1
    71    21    67    1
    72    23    68    1
    73    24    69    1
    74    25    70    1
    75    25    71    1
    76    25    72    1
    77    26    73    1
    78    26    74    1
    79    26    75    1
    80    28    76    1
    81    29    77    1
    82    29    78    1
    83    29    79    1
    84    31    80    1
    85    33    81    1
    86    33    82    1
    87    33    83    1
    88    34    84    1
    89    34    85    1
    90    34    86    1
    91    38    87    1
    92    38    88    1
    93    38    89    1
    94    40    90    1
    95    40    91    1
    96    40    92    1
    97    41    93    1
    98    42    94    1
    99    42    95    1
   100    43    96    1
   101    45    97    1
   102    46    98    1
   103    47    99    1
   104    48   100    1
   105    49   101    1
   106    50   102    1
   107    51   103    1
