@<TRIPOS>MOLECULE
*****
 103 107 0 0 0
SMALL
USER_CHARGES

@<TRIPOS>ATOM
      1 C         -15.2434   -2.4863   -1.6564 C.3     1  NONAME1    -0.0432
      2 C         -16.4464   -3.4569   -1.6536 C.3     1  NONAME1    -0.0251
      3 C         -16.8492   -3.9389   -0.2441 C.3     1  NONAME1     0.0706
      4 C         -15.6063   -4.5319    0.5251 C.3     1  NONAME1     0.0128
      5 C         -14.3843   -3.6123    0.2648 C.2     1  NONAME1    -0.0589
      6 C         -14.7143   -2.2090   -0.2118 C.3     1  NONAME1    -0.0067
      7 C         -13.6495   -0.8362    0.0000 C.3     1  NONAME1     0.0384
      8 C         -13.1234   -4.0211    0.1287 C.2     1  NONAME1    -0.0555
      9 C         -12.1207   -3.0884   -0.4346 C.3     1  NONAME1     0.0779
     10 C         -12.3158   -1.6062    0.0000 C.3     1  NONAME1     0.0071
     11 C         -12.3144    1.1257   -1.2126 C.3     1  NONAME1    -0.0459
     12 C         -13.3036   -0.0557   -1.4275 C.3     1  NONAME1    -0.0395
     13 C         -10.9844   -0.7385   -0.2939 C.3     1  NONAME1    -0.0200
     14 C         -11.2833    0.7936   -0.1282 C.3     1  NONAME1    -0.0232
     15 C          -9.8498    1.4028   -0.2587 C.3     1  NONAME1    -0.0324
     16 C          -9.8245   -0.9008    0.7133 C.3     1  NONAME1    -0.0465
     17 C          -9.0015    0.3972    0.5768 C.3     1  NONAME1    -0.0489
     18 C         -11.8497    1.2070    1.2676 C.3     1  NONAME1    -0.0588
     19 C          -9.5906    2.8811    0.1398 C.3     1  NONAME1    -0.0379
     20 C         -14.9832   -0.0662    0.0000 C.2     1  NONAME1     0.1274
     21 O         -10.8693   -3.5938    0.0306 O.3     1  NONAME1    -0.3874
     22 O         -17.9379   -4.8598   -0.3972 O.3     1  NONAME1    -0.3446
     23 C         -10.3563   -1.1096   -1.6969 C.3     1  NONAME1    -0.0587
     24 C         -10.3624    3.8544   -0.7554 C.3     1  NONAME1    -0.0621
     25 C          -8.0837    3.2719    0.1924 C.3     1  NONAME1    -0.0204
     26 C          -7.3101    3.3206   -1.1354 C.3     1  NONAME1     0.0738
     27 C          -5.8750    3.7435   -0.9170 C.2     1  NONAME1    -0.0572
     28 C          -4.7949    2.9912   -0.6136 C.2     1  NONAME1    -0.0772
     29 C          -3.4310    3.6188   -0.4854 C.3     1  NONAME1    -0.0440
     30 C          -4.8139    1.5103   -0.3448 C.3     1  NONAME1    -0.0440
     31 O          -7.3519    2.0790   -1.8179 O.3     1  NONAME1    -0.3878
     32 C         -15.3602   -5.9893    0.0719 C.3     1  NONAME1    -0.0537
     33 C         -15.8853   -4.5527    2.0389 C.3     1  NONAME1    -0.0537
     34 O         -15.9020    0.0674   -0.7998 O.2     1  NONAME1    -0.3004
     35 O         -21.3324   -0.9800   -1.9359 O.3     1  NONAME1    -0.3924
     36 C         -20.5277   -1.3895   -0.8423 C.3     1  NONAME1     0.0730
     37 C         -20.3399   -2.9129   -0.7917 C.3     1  NONAME1     0.1130
     38 O         -19.4892   -3.1852    0.3299 O.3     1  NONAME1    -0.3405
     39 C         -19.0707   -4.5496    0.4258 C.3     1  NONAME1     0.1882
     40 C         -20.2094   -5.5409    0.0970 C.3     1  NONAME1     0.1341
     41 O         -20.1402   -6.7186    0.9219 O.3     1  NONAME1    -0.3841
     42 C         -21.5518   -4.8453    0.3220 C.3     1  NONAME1     0.1141
     43 O         -22.6343   -5.7671    0.1050 O.3     1  NONAME1    -0.3864
     44 C         -21.6819   -3.6634   -0.6513 C.3     1  NONAME1     0.1119
     45 O         -22.0791   -4.1840   -1.9314 O.3     1  NONAME1    -0.3865
     46 H         -14.4446   -2.9233   -2.2708 H       1  NONAME1     0.0272
     47 H         -15.5382   -1.5908   -2.2060 H       1  NONAME1     0.0272
     48 H         -17.3093   -2.9641   -2.1195 H       1  NONAME1     0.0291
     49 H         -16.2309   -4.3160   -2.3013 H       1  NONAME1     0.0291
     50 H         -17.2070   -3.0605    0.3046 H       1  NONAME1     0.0605
     51 H         -15.5505   -1.9838    0.4692 H       1  NONAME1     0.0355
     52 H         -12.8298   -5.0525    0.2942 H       1  NONAME1     0.0597
     53 H         -12.1246   -3.1804   -1.5258 H       1  NONAME1     0.0641
     54 H         -12.2193   -1.7120    1.0972 H       1  NONAME1     0.0344
     55 H         -12.8873    2.0205   -0.9435 H       1  NONAME1     0.0271
     56 H         -11.8273    1.3533   -2.1683 H       1  NONAME1     0.0271
     57 H         -14.1388    0.3711   -1.9977 H       1  NONAME1     0.0275
     58 H         -12.9263   -0.7871   -2.1508 H       1  NONAME1     0.0275
     59 H          -9.5600    1.3248   -1.3107 H       1  NONAME1     0.0309
     60 H          -9.1922   -1.7727    0.5173 H       1  NONAME1     0.0271
     61 H         -10.1920   -1.0003    1.7411 H       1  NONAME1     0.0271
     62 H          -8.0497    0.1934    0.0758 H       1  NONAME1     0.0268
     63 H          -8.7708    0.7797    1.5772 H       1  NONAME1     0.0268
     64 H         -11.1095    1.1087    2.0682 H       1  NONAME1     0.0235
     65 H         -12.1654    2.2565    1.2589 H       1  NONAME1     0.0235
     66 H         -12.7128    0.6295    1.5942 H       1  NONAME1     0.0235
     67 H          -9.9543    3.0300    1.1642 H       1  NONAME1     0.0302
     68 H         -15.1067    0.4776    0.9583 H       1  NONAME1     0.1032
     69 H         -10.8837   -3.5655    1.0023 H       1  NONAME1     0.2102
     70 H         -10.1279   -2.1752   -1.7776 H       1  NONAME1     0.0235
     71 H         -10.9851   -0.8501   -2.5486 H       1  NONAME1     0.0235
     72 H          -9.3920   -0.6243   -1.8759 H       1  NONAME1     0.0235
     73 H         -10.1640    3.6702   -1.8161 H       1  NONAME1     0.0233
     74 H         -11.4399    3.7703   -0.5935 H       1  NONAME1     0.0233
     75 H         -10.0872    4.8912   -0.5332 H       1  NONAME1     0.0233
     76 H          -8.0159    4.2634    0.6626 H       1  NONAME1     0.0296
     77 H          -7.5716    2.5912    0.8830 H       1  NONAME1     0.0296
     78 H          -7.7730    4.0560   -1.8029 H       1  NONAME1     0.0638
     79 H          -5.7279    4.8170   -1.0365 H       1  NONAME1     0.0597
     80 H          -2.7329    3.1503   -1.1872 H       1  NONAME1     0.0274
     81 H          -3.0451    3.4852    0.5306 H       1  NONAME1     0.0274
     82 H          -3.4448    4.6928   -0.6980 H       1  NONAME1     0.0274
     83 H          -4.2444    1.2838    0.5634 H       1  NONAME1     0.0274
     84 H          -5.8177    1.1139   -0.1832 H       1  NONAME1     0.0274
     85 H          -4.3576    0.9691   -1.1796 H       1  NONAME1     0.0274
     86 H          -6.6590    2.1070   -2.4996 H       1  NONAME1     0.2102
     87 H         -15.0933   -6.0405   -0.9895 H       1  NONAME1     0.0239
     88 H         -16.2497   -6.6118    0.2212 H       1  NONAME1     0.0239
     89 H         -14.5540   -6.4623    0.6440 H       1  NONAME1     0.0239
     90 H         -16.7060   -5.2338    2.2856 H       1  NONAME1     0.0239
     91 H         -16.1507   -3.5576    2.4136 H       1  NONAME1     0.0239
     92 H         -15.0053   -4.8906    2.5993 H       1  NONAME1     0.0239
     93 H         -21.2874   -0.0095   -1.9775 H       1  NONAME1     0.2095
     94 H         -20.9834   -1.0271    0.0864 H       1  NONAME1     0.0584
     95 H         -19.5485   -0.9031   -0.9264 H       1  NONAME1     0.0584
     96 H         -19.8327   -3.2210   -1.7153 H       1  NONAME1     0.0647
     97 H         -18.7643   -4.7031    1.4658 H       1  NONAME1     0.0937
     98 H         -20.1374   -5.8983   -0.9377 H       1  NONAME1     0.0671
     99 H         -19.2915   -7.1471    0.6995 H       1  NONAME1     0.2101
    100 H         -21.6272   -4.5016    1.3609 H       1  NONAME1     0.0648
    101 H         -22.3561   -6.5875    0.5620 H       1  NONAME1     0.2100
    102 H         -22.4910   -3.0042   -0.3173 H       1  NONAME1     0.0647
    103 H         -22.7777   -4.8395   -1.7257 H       1  NONAME1     0.2100
@<TRIPOS>BOND
     1     1     2    1
     2     2     3    1
     3     3     4    1
     4     4     5    1
     5     5     6    1
     6     1     6    1
     7     8     9    1
     8     9    10    1
     9     7    10    1
    10     7     6    1
    11     5     8    2
    12    11    12    1
    13    13    14    1
    14    11    14    1
    15    12     7    1
    16    10    13    1
    17    16    17    1
    18    15    17    1
    19    15    14    1
    20    13    16    1
    21    14    18    1
    22    15    19    1
    23     7    20    1
    24     9    21    1
    25     3    22    1
    26    13    23    1
    27    19    24    1
    28    19    25    1
    29    25    26    1
    30    26    27    1
    31    27    28    2
    32    28    29    1
    33    28    30    1
    34    26    31    1
    35     4    32    1
    36     4    33    1
    37    20    34    2
    38    35    36    1
    39    37    36    1
    40    37    38    1
    41    39    38    1
    42    40    39    1
    43    40    41    1
    44    40    42    1
    45    42    43    1
    46    42    44    1
    47    44    37    1
    48    44    45    1
    49    39    22    1
    50     1    46    1
    51     1    47    1
    52     2    48    1
    53     2    49    1
    54     3    50    1
    55     6    51    1
    56     8    52    1
    57     9    53    1
    58    10    54    1
    59    11    55    1
    60    11    56    1
    61    12    57    1
    62    12    58    1
    63    15    59    1
    64    16    60    1
    65    16    61    1
    66    17    62    1
    67    17    63    1
    68    18    64    1
    69    18    65    1
    70    18    66    1
    71    19    67    1
    72    20    68    1
    73    21    69    1
    74    23    70    1
    75    23    71    1
    76    23    72    1
    77    24    73    1
    78    24    74    1
    79    24    75    1
    80    25    76    1
    81    25    77    1
    82    26    78    1
    83    27    79    1
    84    29    80    1
    85    29    81    1
    86    29    82    1
    87    30    83    1
    88    30    84    1
    89    30    85    1
    90    31    86    1
    91    32    87    1
    92    32    88    1
    93    32    89    1
    94    33    90    1
    95    33    91    1
    96    33    92    1
    97    35    93    1
    98    36    94    1
    99    36    95    1
   100    37    96    1
   101    39    97    1
   102    40    98    1
   103    41    99    1
   104    42   100    1
   105    43   101    1
   106    44   102    1
   107    45   103    1
