@<TRIPOS>MOLECULE

106 110 1
SMALL
USER_CHARGES
@<TRIPOS>ATOM
1	C1   -11.8333     2.2900     0.0000	C.3	1	noname	-0.0434
2	C2   -13.1670     1.5200     0.0000	C.3	1	noname	-0.0221
3	C3   -13.1670    -0.0200     0.0000	C.3	1	noname	0.1020
4	C4   -11.8333    -0.7900     0.0000	C.3	1	noname	0.0154
5	C5   -10.4997    -0.0200     0.0000	C.2	1	noname	-0.0582
6	C6   -10.4997     1.5200     0.0000	C.3	1	noname	-0.0112
7	C7    -9.1660     2.2900     0.0000	C.3	1	noname	0.0062
8	C8    -9.1660    -0.7900     0.0000	C.2	1	noname	-0.0570
9	C9    -7.8323    -0.0200     0.0000	C.3	1	noname	0.0765
10	C10    -7.8323     1.5200     0.0000	C.3	1	noname	0.0027
11	C11    -7.8323     4.6001     0.0000	C.3	1	noname	-0.0464
12	C12    -9.1660     3.8301     0.0000	C.3	1	noname	-0.0439
13	C13    -6.4987     2.2900     0.0000	C.3	1	noname	-0.0206
14	C14    -6.4987     3.8301     0.0000	C.3	1	noname	-0.0236
15	C15    -5.0610     4.3820     0.0000	C.3	1	noname	-0.0327
16	C16    -4.9305     1.8937     0.0000	C.3	1	noname	-0.0466
17	C17    -4.0918     3.1852     0.0000	C.3	1	noname	-0.0491
18	C18   -12.9223    -1.8790     0.0000	C.3	1	noname	-0.0535
19	C19   -10.8958    -2.0118     0.0000	C.3	1	noname	-0.0535
20	O1   -14.5007    -0.7900     0.0000	O.3	1	noname	-0.2208
21	C20   -10.4997     3.0600     0.0000	C.3	1	noname	0.0498
22	O2    -6.4986    -0.7900     0.0000	O.3	1	noname	-0.3886
23	C21    -6.2868     0.7647     0.0000	C.3	1	noname	-0.0587
24	C22    -6.3778     5.3653     0.0000	C.3	1	noname	-0.0588
25	C23    -4.6624     5.8695     0.0000	C.3	1	noname	-0.0381
26	C24    -5.7513     6.9585     0.0000	C.3	1	noname	-0.0621
27	C25    -3.1748     6.2681     0.0000	C.3	1	noname	-0.0205
28	C26    -2.0859     5.1791     0.0000	C.3	1	noname	0.0727
29	C27    -0.5984     5.5777     0.0000	C.2	1	noname	-0.0646
30	C28     0.4906     4.4888     0.0000	C.2	1	noname	-0.0707
31	C29     1.9781     4.8874     0.0000	C.3	1	noname	-0.0441
32	C30     0.0920     3.0013     0.0000	C.3	1	noname	-0.0441
33	O3    -2.4845     3.6916     0.0000	O.3	1	noname	-0.3889
34	O4   -11.7214     3.9975     0.0000	O.3	1	noname	-0.3956
35	O5   -19.8753     5.1992     0.0000	O.3	1	noname	-0.3934
36	C31   -18.5416     4.4292     0.0000	C.3	1	noname	0.0722
37	C32   -18.5416     2.8892     0.0000	C.3	1	noname	0.1125
38	O6   -17.2079     2.1192     0.0000	O.3	1	noname	-0.3389
39	C33   -17.2079     0.5792     0.0000	C.3	1	noname	0.2202
40	O7   -15.8743    -0.1908     0.0000	O.3	1	noname	-0.2097
41	C34   -18.5416    -0.1908     0.0000	C.3	1	noname	0.1363
42	O8   -18.5416    -1.7308     0.0000	O.3	1	noname	-0.3848
43	C35   -19.8753     0.5792     0.0000	C.3	1	noname	0.1135
44	O9   -21.2090    -0.1908     0.0000	O.3	1	noname	-0.3873
45	C36   -19.8753     2.1192     0.0000	C.3	1	noname	0.1112
46	O10   -21.2090     2.8892     0.0000	O.3	1	noname	-0.3874
47	H1   -12.5563     3.6498     0.0000	H	1	noname	0.0274
48	H2   -11.2643     3.4958     0.0000	H	1	noname	0.0274
49	H3   -13.9831     2.8260     0.0000	H	1	noname	0.0294
50	H4   -14.7061     1.5738     0.0000	H	1	noname	0.0294
51	H5   -13.4284    -1.4023     0.0000	H	1	noname	0.0646
52	H6   -10.0377     2.5980     0.0000	H	1	noname	0.0355
53	H7    -9.1660    -2.3300     0.0000	H	1	noname	0.0602
54	H8    -6.9102     0.1931     0.0000	H	1	noname	0.0648
55	H9    -6.3364     0.2247     0.0000	H	1	noname	0.0345
56	H10    -8.5553     5.9598     0.0000	H	1	noname	0.0272
57	H11    -7.4173     6.2678     0.0000	H	1	noname	0.0272
58	H12    -9.9821     5.1361     0.0000	H	1	noname	0.0273
59	H13   -10.7051     3.8838     0.0000	H	1	noname	0.0273
60	H14    -5.6649     5.9555     0.0000	H	1	noname	0.0311
61	H15    -3.7386     0.9185     0.0000	H	1	noname	0.0272
62	H16    -5.1421     0.3683     0.0000	H	1	noname	0.0272
63	H17    -2.7124     2.5004     0.0000	H	1	noname	0.0270
64	H18    -2.9456     4.1643     0.0000	H	1	noname	0.0270
65	H19   -13.8572    -0.9440     0.0000	H	1	noname	0.0240
66	H20   -14.0112    -2.9679     0.0000	H	1	noname	0.0240
67	H21   -11.5253    -3.2759     0.0000	H	1	noname	0.0240
68	H22   -12.1176    -2.9493     0.0000	H	1	noname	0.0240
69	H23    -9.9583    -3.2336     0.0000	H	1	noname	0.0240
70	H24    -9.6741    -1.0743     0.0000	H	1	noname	0.0240
71	H25   -11.1246     1.8610     0.0000	H	1	noname	0.0569
72	H26   -12.1267     1.8235     0.0000	H	1	noname	0.0569
73	H27    -6.4986    -2.3300     0.0000	H	1	noname	0.2108
74	H28    -7.8121     0.5528     0.0000	H	1	noname	0.0236
75	H29    -5.9209    -0.6067     0.0000	H	1	noname	0.0236
76	H30    -4.7614     0.9766     0.0000	H	1	noname	0.0236
77	H31    -4.8426     5.2445     0.0000	H	1	noname	0.0236
78	H32    -6.4110     6.7466     0.0000	H	1	noname	0.0236
79	H33    -7.9131     5.4861     0.0000	H	1	noname	0.0236
80	H34    -7.3832     5.6403     0.0000	H	1	noname	0.0304
81	H35    -4.6624     8.0474     0.0000	H	1	noname	0.0233
82	H36    -6.8403     8.0474     0.0000	H	1	noname	0.0233
83	H37    -6.8403     5.8695     0.0000	H	1	noname	0.0233
84	H38    -3.5213     7.7686     0.0000	H	1	noname	0.0299
85	H39    -2.1246     7.3944     0.0000	H	1	noname	0.0299
86	H40    -0.9970     4.0902     0.0000	H	1	noname	0.0645
87	H41    -0.1998     7.0653     0.0000	H	1	noname	0.0602
88	H42     2.3767     3.3998     0.0000	H	1	noname	0.0276
89	H43     3.4656     5.2859     0.0000	H	1	noname	0.0276
90	H44     1.5795     6.3749     0.0000	H	1	noname	0.0276
91	H45    -1.3955     3.3998     0.0000	H	1	noname	0.0276
92	H46    -0.3066     1.5137     0.0000	H	1	noname	0.0276
93	H47     1.5795     2.6027     0.0000	H	1	noname	0.0276
94	H48    -1.3955     2.6027     0.0000	H	1	noname	0.2108
95	H49   -11.5204     5.5243     0.0000	H	1	noname	0.2100
96	H50   -19.8753     6.7392     0.0000	H	1	noname	0.2101
97	H51   -17.7255     5.7352     0.0000	H	1	noname	0.0591
98	H52   -17.0025     4.4829     0.0000	H	1	noname	0.0591
99	H53   -17.5517     4.0689     0.0000	H	1	noname	0.0657
100	H54   -16.6812    -0.8680     0.0000	H	1	noname	0.0983
101	H55   -19.5315    -1.3705     0.0000	H	1	noname	0.0683
102	H56   -17.2079    -2.5008     0.0000	H	1	noname	0.2108
103	H57   -21.3919     0.8466     0.0000	H	1	noname	0.0658
104	H58   -21.2090    -1.7308     0.0000	H	1	noname	0.2106
105	H59   -19.9827     3.6554     0.0000	H	1	noname	0.0657
106	H60   -22.5426     2.1192     0.0000	H	1	noname	0.2106
@<TRIPOS>BOND
1	1	2	1
2	2	3	1
3	3	4	1
4	4	5	1
5	5	6	1
6	1	6	1
7	8	9	1
8	9	10	1
9	7	10	1
10	5	8	2
11	7	6	1
12	11	12	1
13	13	14	1
14	11	14	1
15	12	7	1
16	10	13	1
17	16	17	1
18	15	17	1
19	15	14	1
20	13	16	1
21	4	18	1
22	4	19	1
23	3	20	1
24	7	21	1
25	9	22	1
26	13	23	1
27	14	24	1
28	15	25	1
29	25	26	1
30	25	27	1
31	27	28	1
32	28	29	1
33	29	30	2
34	30	31	1
35	30	32	1
36	28	33	1
37	21	34	1
38	35	36	1
39	37	36	1
40	37	38	1
41	39	38	1
42	39	40	1
43	41	39	1
44	41	42	1
45	41	43	1
46	43	44	1
47	43	45	1
48	45	37	1
49	45	46	1
50	20	40	1
51	1	47	1
52	1	48	1
53	2	49	1
54	2	50	1
55	3	51	1
56	6	52	1
57	8	53	1
58	9	54	1
59	10	55	1
60	11	56	1
61	11	57	1
62	12	58	1
63	12	59	1
64	15	60	1
65	16	61	1
66	16	62	1
67	17	63	1
68	17	64	1
69	18	65	1
70	18	66	1
71	18	67	1
72	19	68	1
73	19	69	1
74	19	70	1
75	21	71	1
76	21	72	1
77	22	73	1
78	23	74	1
79	23	75	1
80	23	76	1
81	24	77	1
82	24	78	1
83	24	79	1
84	25	80	1
85	26	81	1
86	26	82	1
87	26	83	1
88	27	84	1
89	27	85	1
90	28	86	1
91	29	87	1
92	31	88	1
93	31	89	1
94	31	90	1
95	32	91	1
96	32	92	1
97	32	93	1
98	33	94	1
99	34	95	1
100	35	96	1
101	36	97	1
102	36	98	1
103	37	99	1
104	39	100	1
105	41	101	1
106	42	102	1
107	43	103	1
108	44	104	1
109	45	105	1
110	46	106	1
@<TRIPOS>SUBSTRUCTURE
1	noname	1
