@<TRIPOS>MOLECULE
*****
 102 107 0 0 0
SMALL
USER_CHARGES

@<TRIPOS>ATOM
      1 C          -7.7783   -2.4175   -0.8269 C.3     1  NONAME1     0.0007
      2 C          -9.2291   -2.4693   -1.2793 C.3     1  NONAME1    -0.0443
      3 C          -9.5274   -3.8261   -1.8780 C.3     1  NONAME1    -0.0255
      4 C          -9.2946   -4.9752   -0.8977 C.3     1  NONAME1     0.0698
      5 C          -7.9979   -4.9022    0.0140 C.3     1  NONAME1     0.0243
      6 C          -7.4592   -3.4363    0.2862 C.3     1  NONAME1     0.0984
      7 C          -5.9646   -3.3545    0.6514 C.2     1  NONAME1    -0.0554
      8 C          -5.2160   -2.2636    0.3911 C.2     1  NONAME1    -0.0810
      9 C          -5.8416   -1.0156   -0.2175 C.3     1  NONAME1    -0.0088
     10 C          -7.4010   -1.1038   -0.1021 C.3     1  NONAME1     0.0067
     11 C          -7.5645    1.3697    0.1263 C.3     1  NONAME1    -0.0462
     12 C          -8.0354    0.1627   -0.6633 C.3     1  NONAME1    -0.0438
     13 C          -5.1301    0.3548    0.1078 C.3     1  NONAME1    -0.0196
     14 C          -6.0491    1.6656   -0.0298 C.3     1  NONAME1    -0.0230
     15 C          -5.6328    2.5684    1.2081 C.3     1  NONAME1    -0.0322
     16 C          -4.5602    0.4768    1.5394 C.3     1  NONAME1    -0.0463
     17 C          -4.3185    1.9781    1.7139 C.3     1  NONAME1    -0.0489
     18 C          -8.2291   -5.6515    1.3453 C.3     1  NONAME1    -0.0545
     19 C          -6.9031   -5.7051   -0.7623 C.3     1  NONAME1    -0.0545
     20 C          -5.7004    4.1215    1.2055 C.3     1  NONAME1    -0.0371
     21 C          -4.8239    4.8717    0.1794 C.3     1  NONAME1    -0.0318
     22 C          -4.8207    6.3661    0.4048 C.2     1  NONAME1    -0.0850
     23 C          -5.6111    7.2129   -0.2828 C.2     1  NONAME1    -0.0573
     24 C          -5.7597    8.7061   -0.0891 C.3     1  NONAME1     0.0786
     25 C          -5.9638    9.3934   -1.4433 C.3     1  NONAME1    -0.0327
     26 C          -4.6122    9.3820    0.6635 C.3     1  NONAME1    -0.0327
     27 O          -6.9482    8.9229    0.6767 O.3     1  NONAME1    -0.3851
     28 C          -5.8770    2.3283   -1.4093 C.3     1  NONAME1    -0.0588
     29 H          -5.6567   -1.1359   -1.2978 H       1  NONAME1     0.0355
     30 C          -7.9319   -1.4085    1.3259 C.3     1  NONAME1     0.0554
     31 O          -8.1073   -2.8425    1.4338 O.3     1  NONAME1    -0.3679
     32 O         -10.4742   -5.5596   -0.3439 O.3     1  NONAME1    -0.3448
     33 C          -3.8770    0.4059   -0.8407 C.3     1  NONAME1    -0.0585
     34 C          -7.1664    4.5854    1.1426 C.3     1  NONAME1    -0.0619
     35 H          -7.2552   -1.0744    2.1181 H       1  NONAME1     0.0566
     36 H          -7.5862    8.2270    0.4481 H       1  NONAME1     0.2106
     37 O         -13.5237   -0.5406    0.8198 O.3     1  NONAME1    -0.3924
     38 C         -12.9272   -1.4319   -0.1143 C.3     1  NONAME1     0.0730
     39 C         -12.8416   -2.8574    0.4495 C.3     1  NONAME1     0.1130
     40 O         -11.7899   -3.5539   -0.2442 O.3     1  NONAME1    -0.3405
     41 C         -11.4745   -4.8059    0.3482 C.3     1  NONAME1     0.1882
     42 C         -12.7237   -5.7198    0.2609 C.3     1  NONAME1     0.1341
     43 O         -12.5171   -6.9776    0.9241 O.3     1  NONAME1    -0.3841
     44 C         -13.9655   -5.0483    0.8377 C.3     1  NONAME1     0.1141
     45 O         -15.1358   -5.8302    0.5318 O.3     1  NONAME1    -0.3864
     46 C         -14.1489   -3.6440    0.2578 C.3     1  NONAME1     0.1119
     47 O         -15.2752   -3.0309    0.8804 O.3     1  NONAME1    -0.3865
     48 H          -7.1544   -2.5955   -1.7134 H       1  NONAME1     0.0338
     49 H          -9.4142   -1.7085   -2.0460 H       1  NONAME1     0.0270
     50 H          -9.8920   -2.2435   -0.4432 H       1  NONAME1     0.0270
     51 H         -10.5421   -3.8516   -2.2890 H       1  NONAME1     0.0290
     52 H          -8.8583   -3.9612   -2.7393 H       1  NONAME1     0.0290
     53 H          -9.0667   -5.7871   -1.6026 H       1  NONAME1     0.0603
     54 H          -5.5144   -4.1884    1.1819 H       1  NONAME1     0.0598
     55 H          -4.1607   -2.2606    0.6492 H       1  NONAME1     0.0573
     56 H          -8.1544    2.2393   -0.1872 H       1  NONAME1     0.0271
     57 H          -7.8264    1.2158    1.1799 H       1  NONAME1     0.0271
     58 H          -9.1285    0.1180   -0.5831 H       1  NONAME1     0.0272
     59 H          -7.8094    0.2720   -1.7290 H       1  NONAME1     0.0272
     60 H          -6.3233    2.3010    2.0248 H       1  NONAME1     0.0309
     61 H          -3.6317   -0.0849    1.6877 H       1  NONAME1     0.0271
     62 H          -5.2839    0.1261    2.2832 H       1  NONAME1     0.0271
     63 H          -3.4606    2.3308    1.1346 H       1  NONAME1     0.0268
     64 H          -4.1329    2.2262    2.7640 H       1  NONAME1     0.0268
     65 H          -8.9947   -5.1657    1.9572 H       1  NONAME1     0.0237
     66 H          -8.5508   -6.6843    1.1695 H       1  NONAME1     0.0237
     67 H          -7.3135   -5.6945    1.9455 H       1  NONAME1     0.0237
     68 H          -7.2525   -6.7155   -1.0091 H       1  NONAME1     0.0237
     69 H          -5.9917   -5.8501   -0.1740 H       1  NONAME1     0.0237
     70 H          -6.6331   -5.2037   -1.6979 H       1  NONAME1     0.0237
     71 H          -5.3374    4.4278    2.1989 H       1  NONAME1     0.0304
     72 H          -5.1711    4.6949   -0.8398 H       1  NONAME1     0.0310
     73 H          -3.7890    4.5144    0.2248 H       1  NONAME1     0.0310
     74 H          -4.1740    6.7299    1.1979 H       1  NONAME1     0.0570
     75 H          -6.2673    6.7836   -1.0399 H       1  NONAME1     0.0597
     76 H          -5.0907    9.2789   -2.0942 H       1  NONAME1     0.0260
     77 H          -6.1615   10.4639   -1.3109 H       1  NONAME1     0.0260
     78 H          -6.8402    8.9887   -1.9645 H       1  NONAME1     0.0260
     79 H          -4.5245    9.0000    1.6870 H       1  NONAME1     0.0260
     80 H          -3.6541    9.2439    0.1516 H       1  NONAME1     0.0260
     81 H          -4.7959   10.4586    0.7629 H       1  NONAME1     0.0260
     82 H          -6.0848    1.6215   -2.2200 H       1  NONAME1     0.0235
     83 H          -4.8635    2.7047   -1.5676 H       1  NONAME1     0.0235
     84 H          -6.5704    3.1638   -1.5477 H       1  NONAME1     0.0235
     85 H          -8.9144   -0.9638    1.5151 H       1  NONAME1     0.0566
     86 H          -4.1634    0.3226   -1.8954 H       1  NONAME1     0.0235
     87 H          -3.1907   -0.4233   -0.6334 H       1  NONAME1     0.0235
     88 H          -3.2977    1.3275   -0.7380 H       1  NONAME1     0.0235
     89 H          -7.5752    4.4995    0.1323 H       1  NONAME1     0.0233
     90 H          -7.7965    3.9999    1.8206 H       1  NONAME1     0.0233
     91 H          -7.2646    5.6290    1.4581 H       1  NONAME1     0.0233
     92 H         -13.7684    0.2653    0.3351 H       1  NONAME1     0.2095
     93 H         -13.4972   -1.4127   -1.0497 H       1  NONAME1     0.0584
     94 H         -11.9263   -1.0476   -0.3358 H       1  NONAME1     0.0584
     95 H         -12.5959   -2.7873    1.5179 H       1  NONAME1     0.0647
     96 H         -11.1487   -4.6728    1.3850 H       1  NONAME1     0.0937
     97 H         -12.9161   -5.9686   -0.7922 H       1  NONAME1     0.0671
     98 H         -11.6541   -7.2960    0.5899 H       1  NONAME1     0.2101
     99 H         -13.9140   -5.0095    1.9321 H       1  NONAME1     0.0648
    100 H         -14.8922   -6.7509    0.7566 H       1  NONAME1     0.2100
    101 H         -14.3813   -3.7259   -0.8123 H       1  NONAME1     0.0647
    102 H         -15.9872   -3.7007    0.8415 H       1  NONAME1     0.2100
@<TRIPOS>BOND
     1     1     2    1
     2     2     3    1
     3     3     4    1
     4     4     5    1
     5     5     6    1
     6     7     8    2
     7     8     9    1
     8     9    10    1
     9     1     6    1
    10     1    10    1
    11     6     7    1
    12    11    12    1
    13    13    14    1
    14    11    14    1
    15     9    13    1
    16    12    10    1
    17    16    17    1
    18    15    17    1
    19    15    14    1
    20    13    16    1
    21     5    18    1
    22     5    19    1
    23    20    21    1
    24    21    22    1
    25    22    23    2
    26    23    24    1
    27    24    25    1
    28    24    26    1
    29    24    27    1
    30    15    20    1
    31    14    28    1
    32     9    29    1
    33    10    30    1
    34     6    31    1
    35     4    32    1
    36    30    31    1
    37    13    33    1
    38    20    34    1
    39    30    35    1
    40    36    27    1
    41    37    38    1
    42    39    38    1
    43    39    40    1
    44    41    40    1
    45    42    41    1
    46    42    43    1
    47    42    44    1
    48    44    45    1
    49    44    46    1
    50    46    39    1
    51    46    47    1
    52    41    32    1
    53     1    48    1
    54     2    49    1
    55     2    50    1
    56     3    51    1
    57     3    52    1
    58     4    53    1
    59     7    54    1
    60     8    55    1
    61    11    56    1
    62    11    57    1
    63    12    58    1
    64    12    59    1
    65    15    60    1
    66    16    61    1
    67    16    62    1
    68    17    63    1
    69    17    64    1
    70    18    65    1
    71    18    66    1
    72    18    67    1
    73    19    68    1
    74    19    69    1
    75    19    70    1
    76    20    71    1
    77    21    72    1
    78    21    73    1
    79    22    74    1
    80    23    75    1
    81    25    76    1
    82    25    77    1
    83    25    78    1
    84    26    79    1
    85    26    80    1
    86    26    81    1
    87    28    82    1
    88    28    83    1
    89    28    84    1
    90    30    85    1
    91    33    86    1
    92    33    87    1
    93    33    88    1
    94    34    89    1
    95    34    90    1
    96    34    91    1
    97    37    92    1
    98    38    93    1
    99    38    94    1
   100    39    95    1
   101    41    96    1
   102    42    97    1
   103    43    98    1
   104    44    99    1
   105    45   100    1
   106    46   101    1
   107    47   102    1
