@<TRIPOS>MOLECULE
*****
 106 111 0 0 0
SMALL
USER_CHARGES

@<TRIPOS>ATOM
      1 C          -8.3440   -2.0901   -0.5856 C.3     1  NONAME1     0.0033
      2 C          -9.6987   -2.0030   -1.3084 C.3     1  NONAME1    -0.0442
      3 C         -10.6665   -3.1214   -0.9797 C.3     1  NONAME1    -0.0256
      4 C         -10.1038   -4.5346   -1.2060 C.3     1  NONAME1     0.0668
      5 C          -8.5400   -4.6581   -1.0370 C.3     1  NONAME1     0.0243
      6 C          -7.9931   -3.5252   -0.1052 C.3     1  NONAME1     0.1015
      7 C          -6.4982   -3.5741    0.1744 C.2     1  NONAME1    -0.0552
      8 C          -5.8528   -2.5212    0.7038 C.2     1  NONAME1    -0.0809
      9 C          -6.5807   -1.2418    1.0789 C.3     1  NONAME1    -0.0063
     10 C          -8.1470   -1.3174    0.7535 C.3     1  NONAME1     0.0342
     11 C          -8.0688    1.3038    0.4417 C.3     1  NONAME1    -0.0462
     12 C          -8.8441    0.0616    0.9086 C.3     1  NONAME1    -0.0413
     13 C          -5.8984    0.0431    0.5025 C.3     1  NONAME1    -0.0195
     14 C          -6.6456    1.3310    1.0244 C.3     1  NONAME1    -0.0230
     15 C          -5.6821    2.4608    0.5381 C.3     1  NONAME1    -0.0322
     16 C          -4.4706    0.3163    1.0106 C.3     1  NONAME1    -0.0463
     17 C          -4.2782    1.8359    0.8246 C.3     1  NONAME1    -0.0489
     18 C          -7.8785   -4.5712   -2.4375 C.3     1  NONAME1    -0.0545
     19 C          -8.1954   -6.0656   -0.4777 C.3     1  NONAME1    -0.0545
     20 C          -5.8107    3.9014    1.1270 C.3     1  NONAME1    -0.0371
     21 C          -4.7274    4.8390    0.5219 C.3     1  NONAME1    -0.0318
     22 C          -4.5227    6.2036    1.1406 C.2     1  NONAME1    -0.0850
     23 C          -4.9693    6.6392    2.3322 C.2     1  NONAME1    -0.0573
     24 C          -4.7637    8.0061    2.9512 C.3     1  NONAME1     0.0786
     25 C          -6.1237    8.6526    3.2344 C.3     1  NONAME1    -0.0327
     26 C          -3.8935    8.9726    2.1434 C.3     1  NONAME1    -0.0327
     27 O          -4.1014    7.8089    4.2025 O.3     1  NONAME1    -0.3851
     28 C          -6.7516    1.4183    2.5822 C.3     1  NONAME1    -0.0588
     29 H          -6.4622   -1.1893    2.1670 H       1  NONAME1     0.0355
     30 C          -8.8471   -2.3292    1.7111 C.3     1  NONAME1     0.1663
     31 O          -8.6009   -3.6428    1.1982 O.3     1  NONAME1    -0.3394
     32 O         -10.7746   -5.4423   -0.3153 O.3     1  NONAME1    -0.3733
     33 C          -5.7773   -0.0341   -1.0560 C.3     1  NONAME1    -0.0585
     34 C          -7.2024    4.4968    0.8696 C.3     1  NONAME1    -0.0619
     35 O          -8.4147   -2.1712    3.0581 O.3     1  NONAME1    -0.3539
     36 C          -9.0424   -3.1035    3.9273 C.3     1  NONAME1     0.0395
     37 C         -12.1509   -5.6620   -0.5957 C.3     1  NONAME1     0.0768
     38 C         -12.7452   -6.7033    0.3723 C.3     1  NONAME1     0.1133
     39 O         -14.1878   -6.6609    0.2794 O.3     1  NONAME1    -0.3407
     40 C         -14.7020   -7.5675   -0.6757 C.3     1  NONAME1     0.1854
     41 O         -16.0912   -7.3288   -0.8348 O.3     1  NONAME1    -0.3649
     42 C         -14.5053   -9.0209   -0.2114 C.3     1  NONAME1     0.1339
     43 O         -14.5091   -9.9070   -1.3495 O.3     1  NONAME1    -0.3841
     44 C         -13.1900   -9.1802    0.5592 C.3     1  NONAME1     0.1141
     45 O         -12.6291  -10.4882    0.3516 O.3     1  NONAME1    -0.3864
     46 C         -12.1637   -8.1206    0.1463 C.3     1  NONAME1     0.1119
     47 O         -10.9681   -8.3222    0.9046 O.3     1  NONAME1    -0.3865
     48 H          -7.6175   -1.7677   -1.3338 H       1  NONAME1     0.0339
     49 H          -9.5100   -2.0456   -2.3894 H       1  NONAME1     0.0270
     50 H         -10.1849   -1.0359   -1.1710 H       1  NONAME1     0.0270
     51 H         -11.0308   -3.0151    0.0472 H       1  NONAME1     0.0290
     52 H         -11.5617   -2.9987   -1.6036 H       1  NONAME1     0.0290
     53 H         -10.3546   -4.8479   -2.2285 H       1  NONAME1     0.0602
     54 H          -5.9473   -4.4905   -0.0043 H       1  NONAME1     0.0598
     55 H          -4.7943   -2.5986    0.9370 H       1  NONAME1     0.0573
     56 H          -8.6383    2.1804    0.7623 H       1  NONAME1     0.0271
     57 H          -8.0638    1.3529   -0.6509 H       1  NONAME1     0.0271
     58 H          -9.0805    0.2095    1.9709 H       1  NONAME1     0.0273
     59 H          -9.8291    0.0717    0.4357 H       1  NONAME1     0.0273
     60 H          -5.7957    2.5669   -0.5492 H       1  NONAME1     0.0309
     61 H          -4.3638    0.0529    2.0693 H       1  NONAME1     0.0271
     62 H          -3.7039   -0.2479    0.4679 H       1  NONAME1     0.0271
     63 H          -3.8160    2.2549    1.7257 H       1  NONAME1     0.0268
     64 H          -3.6008    2.0353   -0.0137 H       1  NONAME1     0.0268
     65 H          -8.2395   -5.3767   -3.0883 H       1  NONAME1     0.0237
     66 H          -8.0895   -3.6280   -2.9464 H       1  NONAME1     0.0237
     67 H          -6.7897   -4.6748   -2.3770 H       1  NONAME1     0.0237
     68 H          -8.5170   -6.1822    0.5628 H       1  NONAME1     0.0237
     69 H          -8.6818   -6.8502   -1.0699 H       1  NONAME1     0.0237
     70 H          -7.1209   -6.2717   -0.5134 H       1  NONAME1     0.0237
     71 H          -5.6480    3.8483    2.2095 H       1  NONAME1     0.0304
     72 H          -3.7466    4.3517    0.5491 H       1  NONAME1     0.0310
     73 H          -4.9608    4.9909   -0.5405 H       1  NONAME1     0.0310
     74 H          -3.9217    6.8705    0.5248 H       1  NONAME1     0.0570
     75 H          -5.5525    5.9566    2.9461 H       1  NONAME1     0.0597
     76 H          -6.6804    8.8449    2.3107 H       1  NONAME1     0.0260
     77 H          -6.0005    9.6018    3.7690 H       1  NONAME1     0.0260
     78 H          -6.7397    8.0165    3.8815 H       1  NONAME1     0.0260
     79 H          -2.8890    8.5626    1.9850 H       1  NONAME1     0.0260
     80 H          -3.7518    9.9137    2.6883 H       1  NONAME1     0.0260
     81 H          -4.3359    9.2071    1.1694 H       1  NONAME1     0.0260
     82 H          -4.6015    7.1455    4.7053 H       1  NONAME1     0.2106
     83 H          -5.7773    1.5322    3.0674 H       1  NONAME1     0.0235
     84 H          -7.2231    0.5458    3.0386 H       1  NONAME1     0.0235
     85 H          -7.3569    2.2803    2.8822 H       1  NONAME1     0.0235
     86 H          -9.9312   -2.1672    1.6919 H       1  NONAME1     0.0916
     87 H          -5.3214   -0.9786   -1.3724 H       1  NONAME1     0.0235
     88 H          -6.7346    0.0622   -1.5686 H       1  NONAME1     0.0235
     89 H          -5.1323    0.7459   -1.4736 H       1  NONAME1     0.0235
     90 H          -7.2406    5.5703    1.0750 H       1  NONAME1     0.0233
     91 H          -7.5079    4.3528   -0.1722 H       1  NONAME1     0.0233
     92 H          -7.9521    4.0404    1.5194 H       1  NONAME1     0.0233
     93 H          -8.7268   -2.8814    4.9503 H       1  NONAME1     0.0525
     94 H          -8.7347   -4.1260    3.6889 H       1  NONAME1     0.0525
     95 H         -10.1316   -3.0128    3.8734 H       1  NONAME1     0.0525
     96 H         -12.2731   -5.9942   -1.6333 H       1  NONAME1     0.0587
     97 H         -12.7108   -4.7266   -0.4867 H       1  NONAME1     0.0587
     98 H         -12.4950   -6.3835    1.3918 H       1  NONAME1     0.0647
     99 H         -14.2403   -7.3987   -1.6560 H       1  NONAME1     0.0935
    100 H         -16.1584   -6.3729   -1.0006 H       1  NONAME1     0.2126
    101 H         -15.3322   -9.3473    0.4308 H       1  NONAME1     0.0671
    102 H         -15.3983   -9.8146   -1.7464 H       1  NONAME1     0.2101
    103 H         -13.3750   -9.0861    1.6364 H       1  NONAME1     0.0648
    104 H         -13.0691  -10.8286   -0.4574 H       1  NONAME1     0.2100
    105 H         -11.8923   -8.2695   -0.9061 H       1  NONAME1     0.0647
    106 H         -10.8261   -9.2902    0.9192 H       1  NONAME1     0.2100
@<TRIPOS>BOND
     1     1     2    1
     2     2     3    1
     3     3     4    1
     4     4     5    1
     5     5     6    1
     6     7     8    2
     7     8     9    1
     8     9    10    1
     9     1     6    1
    10     1    10    1
    11     6     7    1
    12    11    12    1
    13    13    14    1
    14    11    14    1
    15     9    13    1
    16    12    10    1
    17    16    17    1
    18    15    17    1
    19    15    14    1
    20    13    16    1
    21     5    18    1
    22     5    19    1
    23    20    21    1
    24    21    22    1
    25    22    23    2
    26    23    24    1
    27    24    25    1
    28    24    26    1
    29    24    27    1
    30    15    20    1
    31    14    28    1
    32     9    29    1
    33    10    30    1
    34     6    31    1
    35     4    32    1
    36    30    31    1
    37    13    33    1
    38    20    34    1
    39    30    35    1
    40    35    36    1
    41    38    37    1
    42    38    39    1
    43    40    39    1
    44    40    41    1
    45    42    40    1
    46    42    43    1
    47    42    44    1
    48    44    45    1
    49    44    46    1
    50    46    38    1
    51    46    47    1
    52    37    32    1
    53     1    48    1
    54     2    49    1
    55     2    50    1
    56     3    51    1
    57     3    52    1
    58     4    53    1
    59     7    54    1
    60     8    55    1
    61    11    56    1
    62    11    57    1
    63    12    58    1
    64    12    59    1
    65    15    60    1
    66    16    61    1
    67    16    62    1
    68    17    63    1
    69    17    64    1
    70    18    65    1
    71    18    66    1
    72    18    67    1
    73    19    68    1
    74    19    69    1
    75    19    70    1
    76    20    71    1
    77    21    72    1
    78    21    73    1
    79    22    74    1
    80    23    75    1
    81    25    76    1
    82    25    77    1
    83    25    78    1
    84    26    79    1
    85    26    80    1
    86    26    81    1
    87    27    82    1
    88    28    83    1
    89    28    84    1
    90    28    85    1
    91    30    86    1
    92    33    87    1
    93    33    88    1
    94    33    89    1
    95    34    90    1
    96    34    91    1
    97    34    92    1
    98    36    93    1
    99    36    94    1
   100    36    95    1
   101    37    96    1
   102    37    97    1
   103    38    98    1
   104    40    99    1
   105    41   100    1
   106    42   101    1
   107    43   102    1
   108    44   103    1
   109    45   104    1
   110    46   105    1
   111    47   106    1
