@<TRIPOS>MOLECULE
*****
 102 107 0 0 0
SMALL
USER_CHARGES

@<TRIPOS>ATOM
      1 C1          6.4057   -5.8875    5.0596 C.3     1  NONAME1     0.0007
      2 C2          7.5721   -4.9498    5.3316 C.3     1  NONAME1    -0.0443
      3 C3          8.6453   -5.6646    6.1644 C.3     1  NONAME1    -0.0256
      4 C4          8.0785   -6.2935    7.4557 C.3     1  NONAME1     0.0668
      5 C5          6.8630   -7.2399    7.1837 C.3     1  NONAME1     0.0242
      6 C6          5.7996   -6.4414    6.3626 C.3     1  NONAME1     0.0984
      7 C7          5.1240   -5.3106    7.1322 C.2     1  NONAME1    -0.0554
      8 C8          4.4544   -4.3297    6.5056 C.2     1  NONAME1    -0.0810
      9 C9          4.2816   -4.3285    5.0038 C.3     1  NONAME1    -0.0088
     10 C10         5.1232   -5.4690    4.3012 C.3     1  NONAME1     0.0067
     11 C11         5.2528   -3.8795    2.1734 C.3     1  NONAME1    -0.0462
     12 C12         5.3368   -5.2966    2.7713 C.3     1  NONAME1    -0.0438
     13 C13         4.4010   -2.9321    4.3292 C.3     1  NONAME1    -0.0196
     14 C14         4.1087   -3.0567    2.7847 C.3     1  NONAME1    -0.0230
     15 C15         3.9992   -1.5526    2.3680 C.3     1  NONAME1    -0.0322
     16 C16         3.3207   -1.9206    4.7523 C.3     1  NONAME1    -0.0463
     17 C17         3.2383   -0.9276    3.5807 C.3     1  NONAME1    -0.0489
     18 C18         6.2862   -7.7533    8.5281 C.3     1  NONAME1    -0.0545
     19 C19         7.3160   -8.5196    6.4281 C.3     1  NONAME1    -0.0545
     20 C20         3.3277   -1.1674    1.0143 C.3     1  NONAME1    -0.0371
     21 C21         3.2496    0.3749    0.8522 C.3     1  NONAME1    -0.0318
     22 C22         2.3135    0.8015   -0.2461 C.2     1  NONAME1    -0.0850
     23 C23         0.9983    1.0070   -0.0543 C.2     1  NONAME1    -0.0573
     24 C24        -0.0110    1.4263   -1.0972 C.3     1  NONAME1     0.0786
     25 C25        -0.9766    0.2731   -1.3780 C.3     1  NONAME1    -0.0327
     26 C26        -0.7722    2.6653   -0.6207 C.3     1  NONAME1    -0.0327
     27 O1          0.6598    1.7531   -2.3132 O.3     1  NONAME1    -0.3851
     28 C27         2.7594   -3.7659    2.4468 C.3     1  NONAME1    -0.0588
     29 H1          3.2233   -4.6031    4.8923 H       1  NONAME1     0.0355
     30 C28         4.3710   -6.8229    4.5655 C.3     1  NONAME1     0.0554
     31 O2          4.7199   -7.2758    5.8952 O.3     1  NONAME1    -0.3679
     32 O3          9.0847   -7.0301    8.1625 O.3     1  NONAME1    -0.3733
     33 C29         5.7625   -2.2571    4.6681 C.3     1  NONAME1    -0.0585
     34 C30         4.0563   -1.7734   -0.1920 C.3     1  NONAME1    -0.0619
     35 H2          4.6957   -7.6076    3.8709 H       1  NONAME1     0.0566
     36 C31        10.1288   -6.2181    8.7177 C.3     1  NONAME1     0.0768
     37 C32        10.7688   -6.9769    9.8891 C.3     1  NONAME1     0.1133
     38 O4         11.4468   -8.1444    9.3835 O.3     1  NONAME1    -0.3407
     39 C33        11.9605   -8.9500   10.4304 C.3     1  NONAME1     0.1854
     40 O5         12.5893  -10.0853    9.8525 O.3     1  NONAME1    -0.3649
     41 C34        13.0179   -8.1851   11.2409 C.3     1  NONAME1     0.1339
     42 O6         13.5112   -8.9712   12.3360 O.3     1  NONAME1    -0.3841
     43 C35        12.4068   -6.8971   11.7840 C.3     1  NONAME1     0.1141
     44 O7         13.4119   -6.0925   12.4215 O.3     1  NONAME1    -0.3864
     45 C36        11.7601   -6.0881   10.6553 C.3     1  NONAME1     0.1119
     46 O8         11.1120   -4.9444   11.2168 O.3     1  NONAME1    -0.3865
     47 H3         -0.0136    2.0313   -2.9552 H       1  NONAME1     0.2106
     48 H4          6.8328   -6.7178    4.4770 H       1  NONAME1     0.0338
     49 H5          8.0123   -4.6085    4.3886 H       1  NONAME1     0.0270
     50 H6          7.2622   -4.0668    5.8932 H       1  NONAME1     0.0270
     51 H7          9.1436   -6.4329    5.5609 H       1  NONAME1     0.0290
     52 H8          9.4310   -4.9419    6.4143 H       1  NONAME1     0.0290
     53 H9          7.7368   -5.4821    8.1126 H       1  NONAME1     0.0602
     54 H10         5.1454   -5.3091    8.2159 H       1  NONAME1     0.0598
     55 H11         3.9518   -3.5632    7.0893 H       1  NONAME1     0.0573
     56 H12         6.2161   -3.3730    2.2871 H       1  NONAME1     0.0271
     57 H13         5.1244   -3.9881    1.0925 H       1  NONAME1     0.0271
     58 H14         4.5878   -5.9034    2.2441 H       1  NONAME1     0.0272
     59 H15         6.2997   -5.7311    2.4735 H       1  NONAME1     0.0272
     60 H16         5.0109   -1.1258    2.3398 H       1  NONAME1     0.0309
     61 H17         3.5545   -1.4056    5.6909 H       1  NONAME1     0.0271
     62 H18         2.3483   -2.4059    4.8960 H       1  NONAME1     0.0271
     63 H19         2.1847   -0.7309    3.3513 H       1  NONAME1     0.0268
     64 H20         3.6980    0.0280    3.8581 H       1  NONAME1     0.0268
     65 H21         6.9823   -8.4389    9.0258 H       1  NONAME1     0.0237
     66 H22         6.0972   -6.9410    9.2361 H       1  NONAME1     0.0237
     67 H23         5.3470   -8.2959    8.3740 H       1  NONAME1     0.0237
     68 H24         8.0229   -9.1066    7.0262 H       1  NONAME1     0.0237
     69 H25         6.4631   -9.1722    6.2102 H       1  NONAME1     0.0237
     70 H26         7.8151   -8.3031    5.4807 H       1  NONAME1     0.0237
     71 H27         2.2994   -1.5513    1.0122 H       1  NONAME1     0.0304
     72 H28         2.9167    0.8532    1.7796 H       1  NONAME1     0.0310
     73 H29         4.2469    0.7853    0.6498 H       1  NONAME1     0.0310
     74 H30         2.7435    0.9442   -1.2356 H       1  NONAME1     0.0570
     75 H31         0.5935    0.8421    0.9433 H       1  NONAME1     0.0597
     76 H32        -1.5223   -0.0321   -0.4784 H       1  NONAME1     0.0260
     77 H33        -1.7077    0.5537   -2.1450 H       1  NONAME1     0.0260
     78 H34        -0.4404   -0.6001   -1.7690 H       1  NONAME1     0.0260
     79 H35        -1.3179    2.4757    0.3103 H       1  NONAME1     0.0260
     80 H36        -0.0886    3.5063   -0.4547 H       1  NONAME1     0.0260
     81 H37        -1.4923    2.9970   -1.3778 H       1  NONAME1     0.0260
     82 H38         1.8899   -3.2139    2.8167 H       1  NONAME1     0.0235
     83 H39         2.6343   -3.8714    1.3642 H       1  NONAME1     0.0235
     84 H40         2.6863   -4.7774    2.8525 H       1  NONAME1     0.0235
     85 H41         3.2821   -6.7444    4.4877 H       1  NONAME1     0.0566
     86 H42         5.9168   -2.2028    5.7513 H       1  NONAME1     0.0235
     87 H43         6.6124   -2.7782    4.2321 H       1  NONAME1     0.0235
     88 H44         5.8279   -1.2224    4.3172 H       1  NONAME1     0.0235
     89 H45         3.9203   -2.8555   -0.2374 H       1  NONAME1     0.0233
     90 H46         3.6690   -1.3826   -1.1384 H       1  NONAME1     0.0233
     91 H47         5.1294   -1.5580   -0.1556 H       1  NONAME1     0.0233
     92 H48         9.7160   -5.2647    9.0642 H       1  NONAME1     0.0587
     93 H49        10.8707   -6.0341    7.9334 H       1  NONAME1     0.0587
     94 H50         9.9577   -7.3085   10.5522 H       1  NONAME1     0.0647
     95 H51        11.1508   -9.3157   11.0735 H       1  NONAME1     0.0935
     96 H52        11.9014  -10.4667    9.2786 H       1  NONAME1     0.2126
     97 H53        13.8866   -7.9490   10.6137 H       1  NONAME1     0.0671
     98 H54        13.7686   -9.8265   11.9348 H       1  NONAME1     0.2101
     99 H55        11.6686   -7.1189   12.5650 H       1  NONAME1     0.0648
    100 H56        13.9028   -6.7115   13.0000 H       1  NONAME1     0.2100
    101 H57        12.5417   -5.7188    9.9792 H       1  NONAME1     0.0647
    102 H58        11.7698   -4.5542   11.8290 H       1  NONAME1     0.2100
@<TRIPOS>BOND
     1     1     2    1
     2     2     3    1
     3     3     4    1
     4     4     5    1
     5     5     6    1
     6     7     8    2
     7     8     9    1
     8     9    10    1
     9     1     6    1
    10     1    10    1
    11     6     7    1
    12    11    12    1
    13    13    14    1
    14    11    14    1
    15     9    13    1
    16    12    10    1
    17    16    17    1
    18    15    17    1
    19    15    14    1
    20    13    16    1
    21     5    18    1
    22     5    19    1
    23    20    21    1
    24    21    22    1
    25    22    23    2
    26    23    24    1
    27    24    25    1
    28    24    26    1
    29    24    27    1
    30    15    20    1
    31    14    28    1
    32     9    29    1
    33    10    30    1
    34     6    31    1
    35     4    32    1
    36    30    31    1
    37    13    33    1
    38    20    34    1
    39    30    35    1
    40    37    36    1
    41    37    38    1
    42    39    38    1
    43    39    40    1
    44    41    39    1
    45    41    42    1
    46    41    43    1
    47    43    44    1
    48    43    45    1
    49    45    37    1
    50    45    46    1
    51    36    32    1
    52    47    27    1
    53     1    48    1
    54     2    49    1
    55     2    50    1
    56     3    51    1
    57     3    52    1
    58     4    53    1
    59     7    54    1
    60     8    55    1
    61    11    56    1
    62    11    57    1
    63    12    58    1
    64    12    59    1
    65    15    60    1
    66    16    61    1
    67    16    62    1
    68    17    63    1
    69    17    64    1
    70    18    65    1
    71    18    66    1
    72    18    67    1
    73    19    68    1
    74    19    69    1
    75    19    70    1
    76    20    71    1
    77    21    72    1
    78    21    73    1
    79    22    74    1
    80    23    75    1
    81    25    76    1
    82    25    77    1
    83    25    78    1
    84    26    79    1
    85    26    80    1
    86    26    81    1
    87    28    82    1
    88    28    83    1
    89    28    84    1
    90    30    85    1
    91    33    86    1
    92    33    87    1
    93    33    88    1
    94    34    89    1
    95    34    90    1
    96    34    91    1
    97    36    92    1
    98    36    93    1
    99    37    94    1
   100    39    95    1
   101    40    96    1
   102    41    97    1
   103    42    98    1
   104    43    99    1
   105    44   100    1
   106    45   101    1
   107    46   102    1
