@<TRIPOS>MOLECULE
*****
 136 143 0 0 0
SMALL
USER_CHARGES

@<TRIPOS>ATOM
      1 C1        -11.1410   -2.6576    1.1497 C.2     1  NONAME1     0.1193
      2 C2        -12.1619   -1.5659    0.9898 C.3     1  NONAME1     0.0360
      3 C3        -13.5451   -1.9561    1.4970 C.3     1  NONAME1     0.0838
      4 C4        -13.8646   -3.4078    1.3696 C.2     1  NONAME1    -0.0129
      5 C5        -12.9458   -4.3699    1.1809 C.2     1  NONAME1     0.1329
      6 C6        -11.5140   -3.9989    1.1471 C.2     1  NONAME1     0.0582
      7 C7        -10.4939   -4.9390    1.1720 C.2     1  NONAME1    -0.0023
      8 C8         -9.1829   -4.5053    1.2917 C.2     1  NONAME1     0.1674
      9 C9         -8.9653   -3.1025    1.2645 C.2     1  NONAME1     0.1767
     10 O1         -9.9339   -2.2882    1.1401 O.2     1  NONAME1    -0.4552
     11 C10        -6.5170   -0.2192    1.5436 C.ar    1  NONAME1     0.1589
     12 C11        -7.6881   -0.9709    1.5251 C.ar    1  NONAME1    -0.0058
     13 C12        -7.6631   -2.3784    1.3282 C.ar    1  NONAME1     0.0246
     14 C13        -6.3961   -2.9728    1.1552 C.ar    1  NONAME1    -0.0473
     15 C14        -5.2187   -2.2110    1.1869 C.ar    1  NONAME1    -0.0159
     16 C15        -5.2903   -0.8417    1.3764 C.ar    1  NONAME1     0.1583
     17 O2         -4.1421   -0.1085    1.3851 O.3     1  NONAME1    -0.5033
     18 O3         -6.5248    1.1361    1.7121 O.3     1  NONAME1    -0.5033
     19 O4        -13.6362   -1.6314    2.8778 O.3     1  NONAME1    -0.3872
     20 O5        -13.1903   -5.7151    1.0815 O.2     1  NONAME1    -0.4604
     21 O6         -8.1116   -5.3287    1.5289 O.2     1  NONAME1    -0.4571
     22 C16       -14.4540   -6.2577    1.5236 C.3     1  NONAME1     0.2308
     23 O7        -15.5434   -5.8549    0.6821 O.3     1  NONAME1    -0.3313
     24 C17       -16.7954   -6.3715    1.1560 C.3     1  NONAME1     0.1140
     25 C18       -16.8092   -7.9150    1.1893 C.3     1  NONAME1     0.1120
     26 C19       -15.6087   -8.4496    1.9782 C.3     1  NONAME1     0.1152
     27 C20       -14.3098   -7.7955    1.5240 C.3     1  NONAME1     0.1454
     28 O8        -13.9620   -8.2680    0.2128 O.3     1  NONAME1    -0.3829
     29 O9        -15.8099   -8.1941    3.3768 O.3     1  NONAME1    -0.3864
     30 O10       -17.9914   -8.4178    1.8306 O.3     1  NONAME1    -0.3865
     31 C21       -17.9078   -5.8294    0.2472 C.3     1  NONAME1     0.0731
     32 O11       -19.1820   -6.3156    0.6598 O.3     1  NONAME1    -0.3924
     33 O12        -9.2902   -7.3499    1.9502 O.3     1  NONAME1    -0.3301
     34 C22        -9.3638   -8.7667    1.7632 C.3     1  NONAME1     0.1250
     35 C23        -8.2727   -9.3722    2.6351 C.3     1  NONAME1     0.1130
     36 C24        -6.9355   -8.8962    2.0692 C.3     1  NONAME1     0.1156
     37 C25        -6.8041   -7.3712    1.8726 C.3     1  NONAME1     0.1519
     38 C26        -8.1474   -6.7643    1.3187 C.3     1  NONAME1     0.2314
     39 C27        -4.3651   -8.9420    0.3173 C.3     1  NONAME1     0.1343
     40 C28        -2.9353   -9.3598   -0.0017 C.3     1  NONAME1     0.1163
     41 C29        -1.9791   -8.7277    0.9876 C.3     1  NONAME1     0.1343
     42 C30        -2.0693   -7.1880    0.7579 C.3     1  NONAME1     0.1909
     43 O13        -3.4246   -6.6927    0.6834 O.3     1  NONAME1    -0.3174
     44 C31        -4.4438   -7.6053    1.1288 C.3     1  NONAME1     0.1911
     45 O14        -5.7389   -6.9812    0.9651 O.3     1  NONAME1    -0.3365
     46 C32       -10.7753   -9.2480    2.1120 C.3     1  NONAME1     0.1215
     47 O15       -10.8570  -10.6815    2.0310 O.3     1  NONAME1    -0.4589
     48 C33       -11.9792  -11.1957    1.4642 C.2     1  NONAME1     0.3320
     49 C34       -11.8952  -12.6683    1.5301 C.2     1  NONAME1     0.0231
     50 C35       -12.9301  -13.4162    1.1164 C.2     1  NONAME1    -0.0477
     51 O16       -12.9125  -10.5621    1.0013 O.2     1  NONAME1    -0.2456
     52 C36       -12.9803  -14.8857    1.1930 C.ar    1  NONAME1    -0.0211
     53 C37       -14.2393  -15.5102    1.2672 C.ar    1  NONAME1    -0.0509
     54 C38       -14.3544  -16.9039    1.3425 C.ar    1  NONAME1    -0.0160
     55 C39       -13.2029  -17.6772    1.3351 C.ar    1  NONAME1     0.1582
     56 C40       -11.9545  -17.0705    1.2431 C.ar    1  NONAME1     0.1588
     57 C41       -11.8322  -15.6882    1.1638 C.ar    1  NONAME1    -0.0094
     58 O17       -10.8236  -17.8368    1.2303 O.3     1  NONAME1    -0.5033
     59 O18       -13.2429  -19.0406    1.4133 O.3     1  NONAME1    -0.5033
     60 O19        -5.1088   -8.8789   -0.9163 O.3     1  NONAME1    -0.3841
     61 O20        -2.8360  -10.7929    0.0429 O.3     1  NONAME1    -0.3863
     62 O21        -0.6731   -9.2832    0.7523 O.3     1  NONAME1    -0.3841
     63 O22        -1.3011   -6.4434    1.7231 O.3     1  NONAME1    -0.3407
     64 C42         0.0786   -6.7937    1.6762 C.3     1  NONAME1     0.1128
     65 C43         1.1727   -5.8035    2.1001 C.2     1  NONAME1     0.1816
     66 O23         0.9449   -4.6517    2.4621 O.2     1  NONAME1    -0.2902
     67 C44         2.6018   -6.2802    2.0578 C.2     1  NONAME1    -0.0163
     68 C45         2.9610   -7.5085    1.6446 C.2     1  NONAME1    -0.0511
     69 C46         4.3285   -8.0613    1.5986 C.ar    1  NONAME1    -0.0212
     70 C47         4.4747   -9.4628    1.6255 C.ar    1  NONAME1    -0.0092
     71 C48         5.4738   -7.2684    1.4681 C.ar    1  NONAME1    -0.0509
     72 C49         6.7405   -7.8578    1.3953 C.ar    1  NONAME1    -0.0160
     73 C50         6.8647   -9.2457    1.4375 C.ar    1  NONAME1     0.1585
     74 C51         5.7353  -10.0643    1.5396 C.ar    1  NONAME1     0.1618
     75 O24         5.9606  -11.4154    1.5720 O.3     1  NONAME1    -0.4914
     76 O25         8.1027   -9.8249    1.3616 O.3     1  NONAME1    -0.5033
     77 C52         4.8545  -12.2663    1.3080 C.3     1  NONAME1     0.0790
     78 O26        -5.9015   -9.3808    2.9439 O.3     1  NONAME1    -0.3863
     79 O27        -8.2366  -10.8012    2.6182 O.3     1  NONAME1    -0.3864
     80 H1        -11.7988   -0.6725    1.5117 H       1  NONAME1     0.0372
     81 H2        -12.2133   -1.3320   -0.0800 H       1  NONAME1     0.0372
     82 H3        -14.2928   -1.3560    0.9650 H       1  NONAME1     0.0643
     83 H4        -14.9211   -3.6521    1.4328 H       1  NONAME1     0.0634
     84 H5        -10.7668   -5.9861    1.1519 H       1  NONAME1     0.0663
     85 H6         -8.6414   -0.4613    1.6512 H       1  NONAME1     0.0662
     86 H7         -6.2689   -4.0373    0.9699 H       1  NONAME1     0.0626
     87 H8         -4.2499   -2.6889    1.0523 H       1  NONAME1     0.0655
     88 H9         -4.4230    0.8169    1.5292 H       1  NONAME1     0.2923
     89 H10        -7.4397    1.4512    1.8031 H       1  NONAME1     0.2923
     90 H11       -14.5826   -1.6140    3.1184 H       1  NONAME1     0.2102
     91 H12       -14.6360   -5.9073    2.5491 H       1  NONAME1     0.1084
     92 H13       -16.9860   -5.9883    2.1682 H       1  NONAME1     0.0647
     93 H14       -16.7721   -8.3106    0.1672 H       1  NONAME1     0.0647
     94 H15       -15.5561   -9.5385    1.8609 H       1  NONAME1     0.0648
     95 H16       -13.4908   -8.0595    2.2011 H       1  NONAME1     0.0683
     96 H17       -13.7009   -9.2105    0.3202 H       1  NONAME1     0.2102
     97 H18       -16.7225   -8.5150    3.5494 H       1  NONAME1     0.2100
     98 H19       -18.7456   -7.9047    1.4618 H       1  NONAME1     0.2100
     99 H20       -17.9179   -4.7344    0.2829 H       1  NONAME1     0.0584
    100 H21       -17.7359   -6.1235   -0.7939 H       1  NONAME1     0.0584
    101 H22       -19.8473   -5.8833    0.0914 H       1  NONAME1     0.2095
    102 H23        -9.1921   -9.0244    0.7081 H       1  NONAME1     0.0658
    103 H24        -8.3715   -9.0537    3.6798 H       1  NONAME1     0.0647
    104 H25        -6.8028   -9.3972    1.1056 H       1  NONAME1     0.0648
    105 H26        -6.5729   -6.9011    2.8369 H       1  NONAME1     0.0687
    106 H27        -8.2063   -6.9238    0.2337 H       1  NONAME1     0.1084
    107 H28        -4.8222   -9.7538    0.8812 H       1  NONAME1     0.0671
    108 H29        -2.6660   -9.0795   -1.0280 H       1  NONAME1     0.0648
    109 H30        -2.2371   -8.9747    2.0253 H       1  NONAME1     0.0671
    110 H31        -1.6374   -6.9530   -0.2235 H       1  NONAME1     0.0938
    111 H32        -4.2539   -7.7651    2.1957 H       1  NONAME1     0.0938
    112 H33       -11.4725   -8.7550    1.4276 H       1  NONAME1     0.0725
    113 H34       -11.0445   -8.9445    3.1295 H       1  NONAME1     0.0725
    114 H35       -10.9934  -13.0955    1.9497 H       1  NONAME1     0.0689
    115 H36       -13.8262  -12.9360    0.7250 H       1  NONAME1     0.0626
    116 H37       -15.1498  -14.9132    1.2780 H       1  NONAME1     0.0625
    117 H38       -15.3395  -17.3550    1.4071 H       1  NONAME1     0.0655
    118 H39       -10.8375  -15.2639    1.0741 H       1  NONAME1     0.0661
    119 H40       -11.1496  -18.7576    1.2949 H       1  NONAME1     0.2923
    120 H41       -14.1737  -19.3180    1.4734 H       1  NONAME1     0.2923
    121 H42        -4.9682   -9.7348   -1.3632 H       1  NONAME1     0.2101
    122 H43        -1.9732  -11.0214   -0.3522 H       1  NONAME1     0.2100
    123 H44        -0.6571  -10.1375    1.2258 H       1  NONAME1     0.2101
    124 H45         0.3448   -7.0534    0.6439 H       1  NONAME1     0.0644
    125 H46         0.1984   -7.6573    2.3398 H       1  NONAME1     0.0644
    126 H47         3.3211   -5.5463    2.4061 H       1  NONAME1     0.0653
    127 H48         2.2084   -8.2188    1.3109 H       1  NONAME1     0.0625
    128 H49         3.5877  -10.0791    1.7307 H       1  NONAME1     0.0661
    129 H50         5.4031   -6.1852    1.4105 H       1  NONAME1     0.0625
    130 H51         7.6155   -7.2222    1.2970 H       1  NONAME1     0.0655
    131 H52         8.7810   -9.1332    1.3276 H       1  NONAME1     0.2923
    132 H53         4.3600  -12.0001    0.3675 H       1  NONAME1     0.0660
    133 H54         4.1456  -12.2574    2.1420 H       1  NONAME1     0.0660
    134 H55         5.2335  -13.2880    1.2063 H       1  NONAME1     0.0660
    135 H56        -6.1368  -10.3160    3.1265 H       1  NONAME1     0.2100
    136 H57        -9.1338  -11.1280    2.8239 H       1  NONAME1     0.2100
@<TRIPOS>BOND
     1     1     2    1
     2     2     3    1
     3     3     4    1
     4     4     5    2
     5     5     6    1
     6     7     8    2
     7     8     9    1
     8     9    10    2
     9     1     6    2
    10     1    10    1
    11     6     7    1
    12    11    12   ar
    13    12    13   ar
    14    13    14   ar
    15    14    15   ar
    16    15    16   ar
    17    11    16   ar
    18    16    17    1
    19    11    18    1
    20     9    13    1
    21     3    19    1
    22     5    20    1
    23     8    21    1
    24    22    23    1
    25    23    24    1
    26    24    25    1
    27    25    26    1
    28    26    27    1
    29    22    27    1
    30    22    20    1
    31    27    28    1
    32    26    29    1
    33    25    30    1
    34    24    31    1
    35    31    32    1
    36    33    34    1
    37    34    35    1
    38    35    36    1
    39    36    37    1
    40    37    38    1
    41    33    38    1
    42    39    40    1
    43    40    41    1
    44    41    42    1
    45    42    43    1
    46    43    44    1
    47    39    44    1
    48    21    38    1
    49    37    45    1
    50    44    45    1
    51    34    46    1
    52    46    47    1
    53    47    48    1
    54    48    49    1
    55    49    50    2
    56    48    51    2
    57    50    52    1
    58    53    54   ar
    59    54    55   ar
    60    55    56   ar
    61    56    57   ar
    62    52    53   ar
    63    52    57   ar
    64    56    58    1
    65    55    59    1
    66    39    60    1
    67    40    61    1
    68    41    62    1
    69    42    63    1
    70    63    64    1
    71    64    65    1
    72    65    66    2
    73    65    67    1
    74    67    68    2
    75    68    69    1
    76    71    72   ar
    77    72    73   ar
    78    73    74   ar
    79    70    74   ar
    80    70    69   ar
    81    69    71   ar
    82    74    75    1
    83    73    76    1
    84    75    77    1
    85    36    78    1
    86    35    79    1
    87     2    80    1
    88     2    81    1
    89     3    82    1
    90     4    83    1
    91     7    84    1
    92    12    85    1
    93    14    86    1
    94    15    87    1
    95    17    88    1
    96    18    89    1
    97    19    90    1
    98    22    91    1
    99    24    92    1
   100    25    93    1
   101    26    94    1
   102    27    95    1
   103    28    96    1
   104    29    97    1
   105    30    98    1
   106    31    99    1
   107    31   100    1
   108    32   101    1
   109    34   102    1
   110    35   103    1
   111    36   104    1
   112    37   105    1
   113    38   106    1
   114    39   107    1
   115    40   108    1
   116    41   109    1
   117    42   110    1
   118    44   111    1
   119    46   112    1
   120    46   113    1
   121    49   114    1
   122    50   115    1
   123    53   116    1
   124    54   117    1
   125    57   118    1
   126    58   119    1
   127    59   120    1
   128    60   121    1
   129    61   122    1
   130    62   123    1
   131    64   124    1
   132    64   125    1
   133    67   126    1
   134    68   127    1
   135    70   128    1
   136    71   129    1
   137    72   130    1
   138    76   131    1
   139    77   132    1
   140    77   133    1
   141    77   134    1
   142    78   135    1
   143    79   136    1
