@<TRIPOS>MOLECULE
*****
 139 146 0 0 0
SMALL
USER_CHARGES

@<TRIPOS>ATOM
      1 C1        -15.6480   -4.0601    0.0709 C.2     1  NONAME1     0.1193
      2 C2        -16.6389   -2.9378    0.1444 C.3     1  NONAME1     0.0360
      3 C3        -18.0943   -3.3528   -0.0117 C.3     1  NONAME1     0.0838
      4 C4        -18.3712   -4.7942    0.2489 C.2     1  NONAME1    -0.0129
      5 C5        -17.4406   -5.7580    0.3267 C.2     1  NONAME1     0.1329
      6 C6        -16.0154   -5.3942    0.2133 C.2     1  NONAME1     0.0582
      7 C7        -14.9868   -6.3227    0.2760 C.2     1  NONAME1    -0.0023
      8 C8        -13.6753   -5.8729    0.2105 C.2     1  NONAME1     0.1674
      9 C9        -13.4643   -4.4843    0.0958 C.2     1  NONAME1     0.1767
     10 O1        -14.4482   -3.6985   -0.0692 O.2     1  NONAME1    -0.4552
     11 C10       -11.1291   -1.4827    0.0011 C.ar    1  NONAME1     0.1619
     12 C11       -12.2495   -2.3232   -0.0261 C.ar    1  NONAME1    -0.0055
     13 C12       -12.1844   -3.7309    0.1272 C.ar    1  NONAME1     0.0246
     14 C13       -10.9067   -4.2714    0.3137 C.ar    1  NONAME1    -0.0473
     15 C14        -9.7676   -3.4477    0.3299 C.ar    1  NONAME1    -0.0159
     16 C15        -9.8770   -2.0617    0.1745 C.ar    1  NONAME1     0.1585
     17 O2         -8.7428   -1.3048    0.1957 O.3     1  NONAME1    -0.5033
     18 O3        -11.4642   -0.1672   -0.1558 O.3     1  NONAME1    -0.4914
     19 O4        -18.8891   -2.6233    0.9159 O.3     1  NONAME1    -0.3872
     20 O5        -17.6696   -7.0988    0.4604 O.2     1  NONAME1    -0.4604
     21 O6        -12.6601   -6.7653    0.4470 O.2     1  NONAME1    -0.4571
     22 C16       -19.0001   -7.6580    0.4323 C.3     1  NONAME1     0.2308
     23 O7        -19.8333   -7.1467   -0.6165 O.3     1  NONAME1    -0.3313
     24 C17       -21.1769   -7.6572   -0.5877 C.3     1  NONAME1     0.1140
     25 C18       -21.3591   -8.9344    0.2579 C.3     1  NONAME1     0.1120
     26 C19       -20.1852   -9.8780    0.0107 C.3     1  NONAME1     0.1152
     27 C20       -18.8376   -9.1846    0.2506 C.3     1  NONAME1     0.1454
     28 O8        -17.9931   -9.4309   -0.8938 O.3     1  NONAME1    -0.3829
     29 O9        -20.3062  -11.0113    0.8836 O.3     1  NONAME1    -0.3864
     30 O10       -22.5753   -9.6211   -0.0560 O.3     1  NONAME1    -0.3865
     31 C21       -22.1331   -6.5484   -0.1219 C.3     1  NONAME1     0.0731
     32 O11       -23.4708   -7.0307   -0.0561 O.3     1  NONAME1    -0.3924
     33 O12       -13.4799   -8.4584   -1.0381 O.3     1  NONAME1    -0.3301
     34 C22       -13.4757   -9.8168   -0.5407 C.3     1  NONAME1     0.1250
     35 C23       -12.9252   -9.8814    0.8944 C.3     1  NONAME1     0.1130
     36 C24       -11.4663   -9.3929    0.9112 C.3     1  NONAME1     0.1156
     37 C25       -11.1167   -8.5442   -0.3355 C.3     1  NONAME1     0.1519
     38 C26       -12.3449   -7.6450   -0.6606 C.3     1  NONAME1     0.2314
     39 C27        -8.5881  -10.0322   -0.3264 C.3     1  NONAME1     0.1343
     40 C28        -7.2311  -10.5860   -0.7199 C.3     1  NONAME1     0.1163
     41 C29        -6.1234   -9.8187   -0.0284 C.3     1  NONAME1     0.1343
     42 C30        -6.2534   -8.3188   -0.4215 C.3     1  NONAME1     0.1909
     43 O13        -7.5560   -7.8243   -0.0591 O.3     1  NONAME1    -0.3174
     44 C31        -8.6750   -8.5138   -0.6429 C.3     1  NONAME1     0.1911
     45 O14        -9.8763   -7.8374   -0.1795 O.3     1  NONAME1    -0.3365
     46 C32       -14.8971  -10.3896   -0.6420 C.3     1  NONAME1     0.1215
     47 O15       -14.8810  -11.8033   -0.3614 O.3     1  NONAME1    -0.4589
     48 C33       -16.0888  -12.4088   -0.5111 C.2     1  NONAME1     0.3320
     49 C34       -15.9480  -13.8599   -0.2851 C.2     1  NONAME1     0.0231
     50 C35       -17.0634  -14.6074   -0.2512 C.2     1  NONAME1    -0.0477
     51 O16       -17.1348  -11.8464   -0.7897 O.2     1  NONAME1    -0.2456
     52 C36       -17.1452  -16.0716   -0.1069 C.ar    1  NONAME1    -0.0211
     53 C37       -18.4260  -16.6577   -0.0549 C.ar    1  NONAME1    -0.0509
     54 C38       -18.5914  -18.0450    0.0337 C.ar    1  NONAME1    -0.0160
     55 C39       -17.4672  -18.8545    0.0714 C.ar    1  NONAME1     0.1582
     56 C40       -16.1971  -18.2878    0.0295 C.ar    1  NONAME1     0.1588
     57 C41       -16.0249  -16.9103   -0.0584 C.ar    1  NONAME1    -0.0094
     58 O17       -15.0931  -19.0925    0.0645 O.3     1  NONAME1    -0.5033
     59 O18       -17.5557  -20.2160    0.1437 O.3     1  NONAME1    -0.5033
     60 O19        -9.5568  -10.8205   -1.0421 O.3     1  NONAME1    -0.3841
     61 O20        -7.1837  -11.9795   -0.3623 O.3     1  NONAME1    -0.3863
     62 O21        -4.8919  -10.4374   -0.4436 O.3     1  NONAME1    -0.3841
     63 O22        -5.2738   -7.4830    0.2270 O.3     1  NONAME1    -0.3407
     64 C42        -3.9409   -7.9431    0.0671 C.3     1  NONAME1     0.1128
     65 C43        -2.7691   -6.9910    0.3357 C.2     1  NONAME1     0.1816
     66 O23        -2.9068   -5.7865    0.5384 O.2     1  NONAME1    -0.2902
     67 C44        -1.3813   -7.5727    0.3511 C.2     1  NONAME1    -0.0163
     68 C45        -1.1076   -8.8531    0.0446 C.2     1  NONAME1    -0.0511
     69 C46         0.2198   -9.4988    0.0719 C.ar    1  NONAME1    -0.0212
     70 C47         0.2731  -10.9030    0.1767 C.ar    1  NONAME1    -0.0092
     71 C48         1.4196   -8.7892   -0.0545 C.ar    1  NONAME1    -0.0509
     72 C49         2.6471   -9.4601   -0.0484 C.ar    1  NONAME1    -0.0160
     73 C50         2.6789  -10.8483    0.0683 C.ar    1  NONAME1     0.1585
     74 C51         1.4951  -11.5857    0.1670 C.ar    1  NONAME1     0.1618
     75 O24         1.6264  -12.9445    0.2844 O.3     1  NONAME1    -0.4914
     76 O25         3.8776  -11.5086    0.0680 O.3     1  NONAME1    -0.5033
     77 C52         0.5117  -13.7329   -0.1077 C.3     1  NONAME1     0.0790
     78 O26       -11.2345   -8.6676    2.1289 O.3     1  NONAME1    -0.3863
     79 O27       -12.9387  -11.1865    1.4766 O.3     1  NONAME1    -0.3864
     80 C53       -10.4366    0.8101   -0.0693 C.3     1  NONAME1     0.0790
     81 H1        -16.4855   -2.4253    1.1026 H       1  NONAME1     0.0372
     82 H2        -16.3894   -2.2046   -0.6324 H       1  NONAME1     0.0372
     83 H3        -18.4513   -3.1166   -1.0217 H       1  NONAME1     0.0643
     84 H4        -19.4267   -5.0325    0.3306 H       1  NONAME1     0.0634
     85 H5        -15.2046   -7.3760    0.4292 H       1  NONAME1     0.0663
     86 H6        -13.2174   -1.8383   -0.1670 H       1  NONAME1     0.0662
     87 H7        -10.7395   -5.3356    0.4642 H       1  NONAME1     0.0626
     88 H8         -8.7939   -3.9144    0.4728 H       1  NONAME1     0.0655
     89 H9         -7.9668   -1.8741    0.3358 H       1  NONAME1     0.2923
     90 H10       -19.1117   -1.7605    0.5205 H       1  NONAME1     0.2102
     91 H11       -19.4623   -7.4318    1.4018 H       1  NONAME1     0.1084
     92 H12       -21.4456   -7.8963   -1.6248 H       1  NONAME1     0.0647
     93 H13       -21.4107   -8.6945    1.3275 H       1  NONAME1     0.0647
     94 H14       -20.2427  -10.2816   -1.0081 H       1  NONAME1     0.0648
     95 H15       -18.3052   -9.6002    1.1140 H       1  NONAME1     0.0683
     96 H16       -17.8958  -10.4095   -0.9518 H       1  NONAME1     0.2102
     97 H17       -21.2218  -11.3340    0.7505 H       1  NONAME1     0.2100
     98 H18       -23.2822   -8.9374   -0.0581 H       1  NONAME1     0.2100
     99 H19       -22.0898   -5.6998   -0.8133 H       1  NONAME1     0.0584
    100 H20       -21.8429   -6.1801    0.8682 H       1  NONAME1     0.0584
    101 H21       -24.0428   -6.2644    0.1396 H       1  NONAME1     0.2095
    102 H22       -12.8457  -10.4294   -1.1992 H       1  NONAME1     0.0658
    103 H23       -13.5337   -9.2429    1.5465 H       1  NONAME1     0.0647
    104 H24       -10.8088  -10.2594    0.9760 H       1  NONAME1     0.0648
    105 H25       -11.0328   -9.1764   -1.2234 H       1  NONAME1     0.0687
    106 H26       -12.0941   -7.0095   -1.5194 H       1  NONAME1     0.1084
    107 H27        -8.7451  -10.2028    0.7440 H       1  NONAME1     0.0671
    108 H28        -7.1090  -10.5554   -1.8109 H       1  NONAME1     0.0648
    109 H29        -6.1862   -9.9236    1.0622 H       1  NONAME1     0.0671
    110 H30        -6.1197   -8.1896   -1.5031 H       1  NONAME1     0.0938
    111 H31        -8.6460   -8.3606   -1.7289 H       1  NONAME1     0.0938
    112 H32       -15.2890  -10.2158   -1.6515 H       1  NONAME1     0.0725
    113 H33       -15.5491   -9.8820    0.0782 H       1  NONAME1     0.0725
    114 H34       -14.9486  -14.2592   -0.1857 H       1  NONAME1     0.0689
    115 H35       -18.0286  -14.1099   -0.3585 H       1  NONAME1     0.0626
    116 H36       -19.3184  -16.0344   -0.0918 H       1  NONAME1     0.0625
    117 H37       -19.5932  -18.4613    0.0649 H       1  NONAME1     0.0655
    118 H38       -15.0127  -16.5238   -0.0989 H       1  NONAME1     0.0661
    119 H39       -15.4541  -20.0009    0.1168 H       1  NONAME1     0.2923
    120 H40       -18.4973  -20.4618    0.1411 H       1  NONAME1     0.2923
    121 H41        -9.2877  -11.7520   -0.8871 H       1  NONAME1     0.2101
    122 H42        -6.4160  -12.3587   -0.8319 H       1  NONAME1     0.2100
    123 H43        -4.7570  -11.1951    0.1582 H       1  NONAME1     0.2101
    124 H44        -3.8037   -8.2858   -0.9654 H       1  NONAME1     0.0644
    125 H45        -3.8061   -8.7578    0.7863 H       1  NONAME1     0.0644
    126 H46        -0.6150   -6.8660    0.6518 H       1  NONAME1     0.0653
    127 H47        -1.9051   -9.5316   -0.2482 H       1  NONAME1     0.0625
    128 H48        -0.6527  -11.4585    0.2869 H       1  NONAME1     0.0661
    129 H49         1.4242   -7.7082   -0.1674 H       1  NONAME1     0.0625
    130 H50         3.5643   -8.8867   -0.1437 H       1  NONAME1     0.0655
    131 H51         4.6010  -10.8645    0.0252 H       1  NONAME1     0.2923
    132 H52         0.1373  -13.4392   -1.0944 H       1  NONAME1     0.0660
    133 H53        -0.2826  -13.6858    0.6439 H       1  NONAME1     0.0660
    134 H54         0.8439  -14.7737   -0.1744 H       1  NONAME1     0.0660
    135 H55       -11.3319   -9.3144    2.8537 H       1  NONAME1     0.2100
    136 H56       -13.7618  -11.6415    1.2185 H       1  NONAME1     0.2100
    137 H57        -9.7297    0.7127   -0.8984 H       1  NONAME1     0.0660
    138 H58        -9.9392    0.7828    0.9049 H       1  NONAME1     0.0660
    139 H59       -10.9121    1.7924   -0.1621 H       1  NONAME1     0.0660
@<TRIPOS>BOND
     1     1     2    1
     2     2     3    1
     3     3     4    1
     4     4     5    2
     5     5     6    1
     6     7     8    2
     7     8     9    1
     8     9    10    2
     9     1     6    2
    10     1    10    1
    11     6     7    1
    12    11    12   ar
    13    12    13   ar
    14    13    14   ar
    15    14    15   ar
    16    15    16   ar
    17    11    16   ar
    18    16    17    1
    19    11    18    1
    20     9    13    1
    21     3    19    1
    22     5    20    1
    23     8    21    1
    24    22    23    1
    25    23    24    1
    26    24    25    1
    27    25    26    1
    28    26    27    1
    29    22    27    1
    30    22    20    1
    31    27    28    1
    32    26    29    1
    33    25    30    1
    34    24    31    1
    35    31    32    1
    36    33    34    1
    37    34    35    1
    38    35    36    1
    39    36    37    1
    40    37    38    1
    41    33    38    1
    42    39    40    1
    43    40    41    1
    44    41    42    1
    45    42    43    1
    46    43    44    1
    47    39    44    1
    48    21    38    1
    49    37    45    1
    50    44    45    1
    51    34    46    1
    52    46    47    1
    53    47    48    1
    54    48    49    1
    55    49    50    2
    56    48    51    2
    57    50    52    1
    58    53    54   ar
    59    54    55   ar
    60    55    56   ar
    61    56    57   ar
    62    52    53   ar
    63    52    57   ar
    64    56    58    1
    65    55    59    1
    66    39    60    1
    67    40    61    1
    68    41    62    1
    69    42    63    1
    70    63    64    1
    71    64    65    1
    72    65    66    2
    73    65    67    1
    74    67    68    2
    75    68    69    1
    76    71    72   ar
    77    72    73   ar
    78    73    74   ar
    79    70    74   ar
    80    70    69   ar
    81    69    71   ar
    82    74    75    1
    83    73    76    1
    84    75    77    1
    85    36    78    1
    86    35    79    1
    87    80    18    1
    88     2    81    1
    89     2    82    1
    90     3    83    1
    91     4    84    1
    92     7    85    1
    93    12    86    1
    94    14    87    1
    95    15    88    1
    96    17    89    1
    97    19    90    1
    98    22    91    1
    99    24    92    1
   100    25    93    1
   101    26    94    1
   102    27    95    1
   103    28    96    1
   104    29    97    1
   105    30    98    1
   106    31    99    1
   107    31   100    1
   108    32   101    1
   109    34   102    1
   110    35   103    1
   111    36   104    1
   112    37   105    1
   113    38   106    1
   114    39   107    1
   115    40   108    1
   116    41   109    1
   117    42   110    1
   118    44   111    1
   119    46   112    1
   120    46   113    1
   121    49   114    1
   122    50   115    1
   123    53   116    1
   124    54   117    1
   125    57   118    1
   126    58   119    1
   127    59   120    1
   128    60   121    1
   129    61   122    1
   130    62   123    1
   131    64   124    1
   132    64   125    1
   133    67   126    1
   134    68   127    1
   135    70   128    1
   136    71   129    1
   137    72   130    1
   138    76   131    1
   139    77   132    1
   140    77   133    1
   141    77   134    1
   142    78   135    1
   143    79   136    1
   144    80   137    1
   145    80   138    1
   146    80   139    1
