@<TRIPOS>MOLECULE
67
 79 84 0 0 0
SMALL
USER_CHARGES

@<TRIPOS>ATOM
      1 C         -11.8767   -1.3203    0.8873 C.3     1  NONAME1     0.1117
      2 C         -12.1983   -2.3698    1.9455 C.3     1  NONAME1     0.0116
      3 C         -12.5501   -3.6357    1.2374 C.3     1  NONAME1     0.0664
      4 C         -11.3229   -4.0922    0.4848 C.3     1  NONAME1     0.0232
      5 C         -10.3330   -2.9784    0.0000 C.3     1  NONAME1     0.0066
      6 C         -10.3330   -1.4383    0.0000 C.3     1  NONAME1     0.0147
      7 C          -9.0117   -1.3603    1.0833 C.3     1  NONAME1    -0.0203
      8 C          -8.9750   -3.8388   -0.0699 C.3     1  NONAME1     0.0894
      9 C          -7.6403   -3.2481    0.4514 C.3     1  NONAME1     0.0909
     10 C          -7.6895   -1.7145    0.2904 C.3     1  NONAME1     0.0212
     11 C          -7.8921    0.9510    1.7934 C.3     1  NONAME1    -0.0430
     12 C          -8.7538   -0.2632    2.1845 C.3     1  NONAME1    -0.0479
     13 C          -6.5043   -0.9243    0.8404 C.2     1  NONAME1    -0.0582
     14 C          -6.5891    0.5917    1.0336 C.3     1  NONAME1    -0.0033
     15 C          -5.3063    0.8960    1.9102 C.3     1  NONAME1    -0.0004
     16 C          -5.3421   -1.4142    1.2921 C.2     1  NONAME1    -0.0830
     17 C          -4.4372   -0.3745    1.8526 C.3     1  NONAME1    -0.0267
     18 C          -4.5582    2.1605    1.5498 C.ar    1  NONAME1    -0.0055
     19 C          -3.9730    4.3250    1.3558 C.ar    1  NONAME1     0.0920
     20 C          -4.8388    3.4821    2.0127 C.ar    1  NONAME1    -0.0204
     21 C          -3.5153    2.3165    0.6528 C.ar    1  NONAME1     0.0951
     22 O          -3.1605    3.6193    0.5323 O.2     1  NONAME1    -0.4708
     23 C          -6.5558    1.3734   -0.3005 C.3     1  NONAME1    -0.0553
     24 C          -7.6939   -1.4809   -1.2505 C.3     1  NONAME1    -0.0531
     25 C         -10.3330    0.1017    0.0000 C.3     1  NONAME1    -0.0555
     26 O          -7.4566   -3.6327    1.8261 O.3     1  NONAME1    -0.3884
     27 O          -9.1916   -5.0896    0.6222 O.3     1  NONAME1    -0.3730
     28 O         -12.9972   -4.6236    2.1541 O.3     1  NONAME1    -0.3910
     29 C         -11.8060   -4.9703   -0.7091 C.3     1  NONAME1    -0.0547
     30 C         -10.4162   -4.9716    1.3477 C.3     1  NONAME1     0.0562
     31 O         -12.1085   -0.0855    1.6508 O.3     1  NONAME1    -0.4576
     32 C         -13.2233    0.6849    1.6638 C.2     1  NONAME1     0.3322
     33 C         -14.4089    0.1634    0.9536 C.2     1  NONAME1     0.0212
     34 O         -13.2473    1.7492    2.2718 O.2     1  NONAME1    -0.2456
     35 C         -15.3039    0.9287    0.2963 C.2     1  NONAME1    -0.0690
     36 C         -16.5383    0.3165   -0.3109 C.3     1  NONAME1    -0.0435
     37 C         -15.1954    2.4189    0.1043 C.3     1  NONAME1    -0.0435
     38 H         -12.6133   -1.3552    0.0725 H       1  NONAME1     0.0740
     39 H         -13.0491   -2.0646    2.5692 H       1  NONAME1     0.0326
     40 H         -11.3761   -2.4908    2.6597 H       1  NONAME1     0.0326
     41 H         -13.3834   -3.4489    0.5476 H       1  NONAME1     0.0601
     42 H         -10.5864   -2.9984   -1.0776 H       1  NONAME1     0.0340
     43 H          -9.2510   -2.1670    1.7945 H       1  NONAME1     0.0316
     44 H          -8.8152   -4.1165   -1.1205 H       1  NONAME1     0.0625
     45 H          -6.8014   -3.6926   -0.0978 H       1  NONAME1     0.0628
     46 H          -8.4890    1.6574    1.2069 H       1  NONAME1     0.0274
     47 H          -7.6662    1.5090    2.7112 H       1  NONAME1     0.0274
     48 H          -9.6873    0.0573    2.6605 H       1  NONAME1     0.0269
     49 H          -8.2133   -0.7623    3.0049 H       1  NONAME1     0.0269
     50 H          -5.6107    1.0080    2.9619 H       1  NONAME1     0.0361
     51 H          -5.0731   -2.4623    1.2972 H       1  NONAME1     0.0572
     52 H          -3.5471   -0.2874    1.2244 H       1  NONAME1     0.0314
     53 H          -4.1099   -0.6529    2.8608 H       1  NONAME1     0.0314
     54 H          -3.8222    5.3955    1.3531 H       1  NONAME1     0.1029
     55 H          -5.6065    3.7857    2.7106 H       1  NONAME1     0.0652
     56 H          -2.9634    1.6329    0.0218 H       1  NONAME1     0.1032
     57 H          -6.4414    2.4506   -0.1418 H       1  NONAME1     0.0238
     58 H          -7.4921    1.3001   -0.8533 H       1  NONAME1     0.0238
     59 H          -5.7491    1.0283   -0.9559 H       1  NONAME1     0.0238
     60 H          -8.4229   -2.0873   -1.7931 H       1  NONAME1     0.0239
     61 H          -6.7135   -1.7351   -1.6751 H       1  NONAME1     0.0239
     62 H          -7.9085   -0.4612   -1.5500 H       1  NONAME1     0.0239
     63 H          -9.4834    0.4684   -0.5801 H       1  NONAME1     0.0236
     64 H         -10.3771    0.7316    0.8832 H       1  NONAME1     0.0236
     65 H         -11.1624    0.4387   -0.6445 H       1  NONAME1     0.0236
     66 H          -7.7473   -4.5662    1.8651 H       1  NONAME1     0.2099
     67 H         -13.7982   -4.2923    2.5971 H       1  NONAME1     0.2098
     68 H         -12.4225   -5.8065   -0.3594 H       1  NONAME1     0.0237
     69 H         -12.4105   -4.3808   -1.4081 H       1  NONAME1     0.0237
     70 H         -10.9725   -5.3971   -1.2778 H       1  NONAME1     0.0237
     71 H         -10.1949   -4.5166    2.3198 H       1  NONAME1     0.0566
     72 H         -10.8159   -5.9754    1.5245 H       1  NONAME1     0.0566
     73 H         -14.5809   -0.9008    1.0487 H       1  NONAME1     0.0688
     74 H         -17.4365    0.7603    0.1315 H       1  NONAME1     0.0274
     75 H         -16.5592    0.4926   -1.3913 H       1  NONAME1     0.0274
     76 H         -16.5879   -0.7655   -0.1496 H       1  NONAME1     0.0274
     77 H         -14.1853    2.8026    0.2669 H       1  NONAME1     0.0274
     78 H         -15.4643    2.6888   -0.9230 H       1  NONAME1     0.0274
     79 H         -15.8803    2.9364    0.7837 H       1  NONAME1     0.0274
@<TRIPOS>BOND
     1     1     2    1
     2     2     3    1
     3     3     4    1
     4     4     5    1
     5     5     6    1
     6     1     6    1
     7     8     9    1
     8     9    10    1
     9     7    10    1
    10     5     8    1
    11     7     6    1
    12    11    12    1
    13    13    14    1
    14    11    14    1
    15    12     7    1
    16    10    13    1
    17    16    17    1
    18    15    17    1
    19    15    14    1
    20    13    16    2
    21    15    18    1
    22    19    20   ar
    23    21    22   ar
    24    19    22   ar
    25    20    18   ar
    26    18    21   ar
    27    14    23    1
    28    10    24    1
    29     6    25    1
    30     9    26    1
    31     8    27    1
    32     3    28    1
    33     4    29    1
    34     4    30    1
    35    30    27    1
    36     1    31    1
    37    31    32    1
    38    32    33    1
    39    32    34    2
    40    33    35    2
    41    35    36    1
    42    35    37    1
    43     1    38    1
    44     2    39    1
    45     2    40    1
    46     3    41    1
    47     5    42    1
    48     7    43    1
    49     8    44    1
    50     9    45    1
    51    11    46    1
    52    11    47    1
    53    12    48    1
    54    12    49    1
    55    15    50    1
    56    16    51    1
    57    17    52    1
    58    17    53    1
    59    19    54    1
    60    20    55    1
    61    21    56    1
    62    23    57    1
    63    23    58    1
    64    23    59    1
    65    24    60    1
    66    24    61    1
    67    24    62    1
    68    25    63    1
    69    25    64    1
    70    25    65    1
    71    26    66    1
    72    28    67    1
    73    29    68    1
    74    29    69    1
    75    29    70    1
    76    30    71    1
    77    30    72    1
    78    33    73    1
    79    36    74    1
    80    36    75    1
    81    36    76    1
    82    37    77    1
    83    37    78    1
    84    37    79    1
