@<TRIPOS>MOLECULE
*****
 108 112 0 0 0
SMALL
USER_CHARGES

@<TRIPOS>ATOM
      1 C          -6.8059   -5.2583   -0.0441 C.3     1  NONAME1     0.0151
      2 C          -5.6031   -4.3103   -0.1279 C.2     1  NONAME1    -0.0612
      3 C          -5.8065   -2.9604    0.5465 C.3     1  NONAME1    -0.0045
      4 C          -6.8036   -2.2648   -0.3888 C.3     1  NONAME1    -0.0169
      5 C          -8.1542   -3.0287   -0.3676 C.3     1  NONAME1     0.0828
      6 C          -8.0483   -4.5501   -0.7059 C.3     1  NONAME1     0.0963
      7 C          -4.4708   -2.2323    1.0085 C.3     1  NONAME1     0.0364
      8 C          -4.5210   -4.5104   -0.8984 C.2     1  NONAME1    -0.0836
      9 C          -3.4808   -3.4579   -1.0940 C.3     1  NONAME1    -0.0302
     10 C          -3.1825   -2.7132    0.2152 C.3     1  NONAME1    -0.0190
     11 C          -3.5025    0.2656    0.8563 C.3     1  NONAME1     0.0127
     12 C          -4.6651   -0.6929    1.1155 C.2     1  NONAME1     0.1406
     13 C          -2.0384   -1.6437    0.1205 C.3     1  NONAME1    -0.0195
     14 C          -2.5994   -0.2352   -0.2673 C.3     1  NONAME1    -0.0117
     15 C          -1.3275    0.6127   -0.6580 C.3     1  NONAME1     0.0242
     16 C          -0.9575   -1.8376   -0.9664 C.3     1  NONAME1    -0.0203
     17 C          -0.2898   -0.4532   -1.1162 C.3     1  NONAME1     0.0619
     18 C          -0.8409    1.6974    0.3265 C.3     1  NONAME1     0.1186
     19 C           0.2484    2.5998   -0.2932 C.2     1  NONAME1     0.1620
     20 C           0.2815    4.0507    0.1540 C.3     1  NONAME1     0.0120
     21 C           1.6893    4.5085    0.5531 C.3     1  NONAME1    -0.0066
     22 C           2.2742    5.7154   -0.2316 C.3     1  NONAME1     0.1084
     23 O           3.5577    5.9608    0.4218 O.3     1  NONAME1    -0.4588
     24 O           0.9146   -0.3908   -0.3631 O.3     1  NONAME1    -0.3914
     25 C          -7.0825   -5.6197    1.4394 C.3     1  NONAME1    -0.0536
     26 C          -6.5761   -6.6103   -0.7700 C.3     1  NONAME1    -0.0536
     27 O          -9.1791   -5.3497   -0.3282 O.3     1  NONAME1    -0.3420
     28 O          -9.0145   -2.3821   -1.3251 O.3     1  NONAME1    -0.3892
     29 C          -4.2860   -2.6699    2.5029 C.3     1  NONAME1    -0.0520
     30 H          -2.7634   -3.5340    0.8192 H       1  NONAME1     0.0319
     31 O          -0.3462    1.1724    1.5429 O.3     1  NONAME1    -0.3839
     32 O           1.0671    2.1674   -1.1102 O.2     1  NONAME1    -0.2946
     33 C           1.3626    6.9423   -0.0805 C.3     1  NONAME1    -0.0251
     34 C           2.4939    5.3355   -1.7014 C.3     1  NONAME1    -0.0251
     35 O          -5.7234   -0.2182    1.5457 O.2     1  NONAME1    -0.2968
     36 H          -1.6911    2.3461    0.5638 H       1  NONAME1     0.0676
     37 H          -1.5766    1.1807   -1.5673 H       1  NONAME1     0.0361
     38 C          -1.2775   -1.7074    1.4878 C.3     1  NONAME1    -0.0587
     39 H          -6.3679   -3.1174    1.4743 H       1  NONAME1     0.0356
     40 C          -3.4824   -0.2226   -1.5604 C.3     1  NONAME1    -0.0582
     41 C           4.3778    6.9689    0.0220 C.2     1  NONAME1     0.3044
     42 O           4.1694    7.7561   -0.8879 O.2     1  NONAME1    -0.2511
     43 C           5.6153    6.9786    0.8687 C.3     1  NONAME1     0.0333
     44 O         -13.3353   -1.3469   -0.1799 O.3     1  NONAME1    -0.3924
     45 C         -12.0499   -1.9639   -0.1185 C.3     1  NONAME1     0.0730
     46 C         -12.1797   -3.4165    0.3508 C.3     1  NONAME1     0.1130
     47 O         -10.8879   -4.0089    0.5141 O.3     1  NONAME1    -0.3405
     48 C         -10.4915   -4.8666   -0.5577 C.3     1  NONAME1     0.1884
     49 C         -11.4571   -6.0893   -0.6626 C.3     1  NONAME1     0.1341
     50 O         -11.0992   -7.1742    0.2185 O.3     1  NONAME1    -0.3841
     51 C         -12.9011   -5.6939   -0.3310 C.3     1  NONAME1     0.1141
     52 O         -13.8116   -6.4695   -1.1254 O.3     1  NONAME1    -0.3864
     53 C         -13.1309   -4.2079   -0.5670 C.3     1  NONAME1     0.1119
     54 O         -14.5049   -3.8946   -0.3036 O.3     1  NONAME1    -0.3865
     55 H          -6.4252   -2.2007   -1.4179 H       1  NONAME1     0.0297
     56 H          -7.0079   -1.2329   -0.0940 H       1  NONAME1     0.0297
     57 H          -8.6213   -2.9025    0.6153 H       1  NONAME1     0.0619
     58 H          -7.9655   -4.6332   -1.7988 H       1  NONAME1     0.0631
     59 H          -4.3895   -5.4213   -1.4750 H       1  NONAME1     0.0572
     60 H          -2.5699   -3.9665   -1.4326 H       1  NONAME1     0.0311
     61 H          -3.7948   -2.8035   -1.9092 H       1  NONAME1     0.0311
     62 H          -2.9744    0.4170    1.8005 H       1  NONAME1     0.0347
     63 H          -3.9306    1.2387    0.5834 H       1  NONAME1     0.0347
     64 H          -0.2386   -2.6214   -0.7034 H       1  NONAME1     0.0296
     65 H          -1.4013   -2.1082   -1.9294 H       1  NONAME1     0.0296
     66 H          -0.0205   -0.3047   -2.1689 H       1  NONAME1     0.0597
     67 H          -0.3816    4.1671    1.0182 H       1  NONAME1     0.0344
     68 H          -0.1499    4.6366   -0.6622 H       1  NONAME1     0.0344
     69 H           1.6682    4.7786    1.6190 H       1  NONAME1     0.0307
     70 H           2.4051    3.6763    0.5050 H       1  NONAME1     0.0307
     71 H           1.4485    0.3257   -0.7746 H       1  NONAME1     0.2098
     72 H          -7.5353   -4.7917    1.9940 H       1  NONAME1     0.0239
     73 H          -7.7760   -6.4645    1.5273 H       1  NONAME1     0.0239
     74 H          -6.1582   -5.9062    1.9549 H       1  NONAME1     0.0239
     75 H          -7.4389   -7.2777   -0.6599 H       1  NONAME1     0.0239
     76 H          -6.4172   -6.4710   -1.8454 H       1  NONAME1     0.0239
     77 H          -5.7063   -7.1386   -0.3617 H       1  NONAME1     0.0239
     78 H          -9.0020   -1.4326   -1.1117 H       1  NONAME1     0.2099
     79 H          -5.1576   -2.3929    3.1101 H       1  NONAME1     0.0239
     80 H          -4.1594   -3.7551    2.5882 H       1  NONAME1     0.0239
     81 H          -3.4338   -2.1903    2.9844 H       1  NONAME1     0.0239
     82 H           0.3899    0.5717    1.2942 H       1  NONAME1     0.2104
     83 H           1.7588    7.8148   -0.6081 H       1  NONAME1     0.0268
     84 H           1.2750    7.2299    0.9732 H       1  NONAME1     0.0268
     85 H           0.3587    6.7658   -0.4765 H       1  NONAME1     0.0268
     86 H           1.5641    5.0325   -2.1915 H       1  NONAME1     0.0268
     87 H           3.2154    4.5148   -1.7844 H       1  NONAME1     0.0268
     88 H           2.9051    6.1682   -2.2802 H       1  NONAME1     0.0268
     89 H          -1.7829   -1.1834    2.2972 H       1  NONAME1     0.0235
     90 H          -1.1360   -2.7465    1.8103 H       1  NONAME1     0.0235
     91 H          -0.2650   -1.3136    1.4478 H       1  NONAME1     0.0235
     92 H          -2.9521   -0.6085   -2.4362 H       1  NONAME1     0.0235
     93 H          -3.7839    0.8056   -1.8009 H       1  NONAME1     0.0235
     94 H          -4.4106   -0.7864   -1.4555 H       1  NONAME1     0.0235
     95 H           6.2011    6.0763    0.6778 H       1  NONAME1     0.0342
     96 H           5.3436    7.0457    1.9254 H       1  NONAME1     0.0342
     97 H           6.2209    7.8535    0.6149 H       1  NONAME1     0.0342
     98 H         -13.1799   -0.3996   -0.3513 H       1  NONAME1     0.2095
     99 H         -11.5967   -1.9134   -1.1131 H       1  NONAME1     0.0584
    100 H         -11.4115   -1.3987    0.5692 H       1  NONAME1     0.0584
    101 H         -12.6292   -3.3844    1.3521 H       1  NONAME1     0.0647
    102 H         -10.5297   -4.3165   -1.5056 H       1  NONAME1     0.0938
    103 H         -11.3741   -6.5039   -1.6745 H       1  NONAME1     0.0671
    104 H         -11.7476   -7.8812    0.0487 H       1  NONAME1     0.2101
    105 H         -13.1408   -5.9434    0.7110 H       1  NONAME1     0.0648
    106 H         -14.6811   -6.0374   -0.9938 H       1  NONAME1     0.2100
    107 H         -12.9560   -3.9756   -1.6247 H       1  NONAME1     0.0647
    108 H         -14.5502   -2.9138   -0.2608 H       1  NONAME1     0.2100
@<TRIPOS>BOND
     1     1     2    1
     2     2     3    1
     3     3     4    1
     4     4     5    1
     5     5     6    1
     6     1     6    1
     7     8     9    1
     8     9    10    1
     9     7    10    1
    10     2     8    2
    11     7     3    1
    12    11    12    1
    13    13    14    1
    14    11    14    1
    15    12     7    1
    16    10    13    1
    17    16    17    1
    18    15    17    1
    19    13    16    1
    20    15    14    1
    21    18    19    1
    22    19    20    1
    23    20    21    1
    24    21    22    1
    25    22    23    1
    26    15    18    1
    27    17    24    1
    28     1    25    1
    29     1    26    1
    30     6    27    1
    31     5    28    1
    32     7    29    1
    33    10    30    1
    34    18    31    1
    35    19    32    2
    36    22    33    1
    37    22    34    1
    38    12    35    2
    39    18    36    1
    40    15    37    1
    41    13    38    1
    42     3    39    1
    43    14    40    1
    44    41    42    2
    45    41    43    1
    46    23    41    1
    47    44    45    1
    48    46    45    1
    49    46    47    1
    50    48    47    1
    51    49    48    1
    52    49    50    1
    53    49    51    1
    54    51    52    1
    55    51    53    1
    56    53    46    1
    57    53    54    1
    58    48    27    1
    59     4    55    1
    60     4    56    1
    61     5    57    1
    62     6    58    1
    63     8    59    1
    64     9    60    1
    65     9    61    1
    66    11    62    1
    67    11    63    1
    68    16    64    1
    69    16    65    1
    70    17    66    1
    71    20    67    1
    72    20    68    1
    73    21    69    1
    74    21    70    1
    75    24    71    1
    76    25    72    1
    77    25    73    1
    78    25    74    1
    79    26    75    1
    80    26    76    1
    81    26    77    1
    82    28    78    1
    83    29    79    1
    84    29    80    1
    85    29    81    1
    86    31    82    1
    87    33    83    1
    88    33    84    1
    89    33    85    1
    90    34    86    1
    91    34    87    1
    92    34    88    1
    93    38    89    1
    94    38    90    1
    95    38    91    1
    96    40    92    1
    97    40    93    1
    98    40    94    1
    99    43    95    1
   100    43    96    1
   101    43    97    1
   102    44    98    1
   103    45    99    1
   104    45   100    1
   105    46   101    1
   106    48   102    1
   107    49   103    1
   108    50   104    1
   109    51   105    1
   110    52   106    1
   111    53   107    1
   112    54   108    1
