@<TRIPOS>MOLECULE
*****
 39 41 0 0 0
SMALL
USER_CHARGES

@<TRIPOS>ATOM
      1 C1          7.3066   -5.7141   -0.7420 C.ar    1  NONAME1    -0.0506
      2 C2          6.6363   -5.0786    0.3128 C.ar    1  NONAME1    -0.0166
      3 C3          6.1852   -5.8483    1.3907 C.ar    1  NONAME1    -0.0506
      4 C4          6.4083   -7.2277    1.4123 C.ar    1  NONAME1    -0.0194
      5 C5          7.1036   -7.8528    0.3749 C.ar    1  NONAME1     0.1201
      6 C6          7.5403   -7.0937   -0.7107 C.ar    1  NONAME1    -0.0194
      7 C7          6.4637   -3.6090    0.3158 C.ar    1  NONAME1     0.0031
      8 C8          7.5976   -2.9307    0.5645 C.ar    1  NONAME1     0.0314
      9 C9          7.6800   -1.4701    0.6412 C.ar    1  NONAME1     0.3378
     10 O1          6.5028   -0.7731    0.4709 O.2     1  NONAME1    -0.4219
     11 C10         5.2884   -1.4422    0.2234 C.ar    1  NONAME1     0.1466
     12 C11         5.2116   -2.8358    0.1266 C.ar    1  NONAME1     0.0671
     13 C12         4.1751   -0.6142    0.0820 C.ar    1  NONAME1     0.0233
     14 C13         2.9251   -1.1731   -0.1480 C.ar    1  NONAME1     0.1271
     15 C14         2.8129   -2.5586   -0.2742 C.ar    1  NONAME1     0.0226
     16 C15         3.9443   -3.3910   -0.1569 C.ar    1  NONAME1     0.1348
     17 O2          8.7510   -0.9119    0.8492 O.2     1  NONAME1    -0.2452
     18 H1          8.0609   -7.5437   -1.5492 H       1  NONAME1     0.0654
     19 O3          7.2800   -9.2007    0.5277 O.3     1  NONAME1    -0.4951
     20 O4          3.8670   -4.7548   -0.2765 O.3     1  NONAME1    -0.4943
     21 O5          1.9037   -0.2699   -0.2436 O.3     1  NONAME1    -0.4949
     22 C16         0.5795   -0.7858   -0.1913 C.3     1  NONAME1     0.0788
     23 C17         2.7493   -5.3024   -0.9630 C.3     1  NONAME1     0.0788
     24 C18         8.2834   -9.8000   -0.2839 C.3     1  NONAME1     0.0788
     25 H2          7.6584   -5.1372   -1.5946 H       1  NONAME1     0.0625
     26 H3          5.6542   -5.3816    2.2167 H       1  NONAME1     0.0625
     27 H4          6.0502   -7.8173    2.2524 H       1  NONAME1     0.0654
     28 H5          8.5464   -3.4308    0.7340 H       1  NONAME1     0.0695
     29 H6          4.2834    0.4639    0.1670 H       1  NONAME1     0.0691
     30 H7          1.8409   -2.9977   -0.4599 H       1  NONAME1     0.0691
     31 H8         -0.1086    0.0643   -0.1532 H       1  NONAME1     0.0660
     32 H9          0.3476   -1.3625   -1.0922 H       1  NONAME1     0.0660
     33 H10         0.4213   -1.3833    0.7129 H       1  NONAME1     0.0660
     34 H11         1.8472   -5.2450   -0.3459 H       1  NONAME1     0.0660
     35 H12         2.9573   -6.3607   -1.1477 H       1  NONAME1     0.0660
     36 H13         2.5970   -4.8180   -1.9334 H       1  NONAME1     0.0660
     37 H14         8.4203  -10.8299    0.0600 H       1  NONAME1     0.0660
     38 H15         9.2440   -9.2838   -0.1777 H       1  NONAME1     0.0660
     39 H16         7.9694   -9.8375   -1.3318 H       1  NONAME1     0.0660
@<TRIPOS>BOND
     1     1     2   ar
     2     2     3   ar
     3     3     4   ar
     4     4     5   ar
     5     5     6   ar
     6     1     6   ar
     7     7     8   ar
     8     8     9   ar
     9     9    10   ar
    10    10    11   ar
    11    11    12   ar
    12     7    12   ar
    13    13    14   ar
    14    14    15   ar
    15    15    16   ar
    16    13    11   ar
    17    16    12   ar
    18     9    17    2
    19     7     2    1
    20     6    18    1
    21     5    19    1
    22    16    20    1
    23    14    21    1
    24    22    21    1
    25    23    20    1
    26    24    19    1
    27     1    25    1
    28     3    26    1
    29     4    27    1
    30     8    28    1
    31    13    29    1
    32    15    30    1
    33    22    31    1
    34    22    32    1
    35    22    33    1
    36    23    34    1
    37    23    35    1
    38    23    36    1
    39    24    37    1
    40    24    38    1
    41    24    39    1
