@<TRIPOS>MOLECULE
*****
 40 42 0 0 0
SMALL
USER_CHARGES

@<TRIPOS>ATOM
      1 C1          7.5698   -5.5657    0.6461 C.ar    1  NONAME1    -0.0088
      2 C2          6.8619   -4.9332   -0.3849 C.ar    1  NONAME1    -0.0132
      3 C3          6.3795   -5.6995   -1.4498 C.ar    1  NONAME1    -0.0503
      4 C4          6.5993   -7.0782   -1.4766 C.ar    1  NONAME1    -0.0157
      5 C5          7.3134   -7.7183   -0.4559 C.ar    1  NONAME1     0.1613
      6 C6          7.7935   -6.9489    0.6104 C.ar    1  NONAME1     0.1590
      7 C7          6.6460   -3.4698   -0.3724 C.ar    1  NONAME1     0.0032
      8 C8          7.7327   -2.7457   -0.6897 C.ar    1  NONAME1     0.0314
      9 C9          7.7302   -1.2855   -0.8217 C.ar    1  NONAME1     0.3378
     10 O1          6.5105   -0.6528   -0.6947 O.2     1  NONAME1    -0.4219
     11 C10         5.3500   -1.3715   -0.3483 C.ar    1  NONAME1     0.1466
     12 C11         5.3691   -2.7532   -0.1384 C.ar    1  NONAME1     0.0671
     13 C12         4.1913   -0.6075   -0.2119 C.ar    1  NONAME1     0.0233
     14 C13         3.0001   -1.2193    0.1595 C.ar    1  NONAME1     0.1271
     15 C14         2.9918   -2.5914    0.4167 C.ar    1  NONAME1     0.0226
     16 C15         4.1615   -3.3617    0.2669 C.ar    1  NONAME1     0.1348
     17 O2          8.7666   -0.6757   -1.0583 O.2     1  NONAME1    -0.2452
     18 O3          8.4849   -7.5174    1.6452 O.3     1  NONAME1    -0.5033
     19 O4          7.4319   -9.0667   -0.6570 O.3     1  NONAME1    -0.4915
     20 O5          4.1997   -4.6997    0.5677 O.3     1  NONAME1    -0.4943
     21 O6          1.9306   -0.3739    0.2591 O.3     1  NONAME1    -0.4949
     22 C16         0.6564   -0.9631    0.4865 C.3     1  NONAME1     0.0788
     23 C17         2.9791   -5.4258    0.4951 C.3     1  NONAME1     0.0788
     24 C18         8.2851   -9.8003    0.2087 C.3     1  NONAME1     0.0790
     25 H1          7.9379   -4.9698    1.4768 H       1  NONAME1     0.0661
     26 H2          5.8238   -5.2331   -2.2597 H       1  NONAME1     0.0625
     27 H3          6.2134   -7.6645   -2.3076 H       1  NONAME1     0.0655
     28 H4          8.6954   -3.2031   -0.8960 H       1  NONAME1     0.0695
     29 H5          4.2206    0.4640   -0.3924 H       1  NONAME1     0.0691
     30 H6          2.0805   -3.0644    0.7601 H       1  NONAME1     0.0691
     31 H7          8.7028   -6.8331    2.2986 H       1  NONAME1     0.2923
     32 H8         -0.0921   -0.1657    0.4494 H       1  NONAME1     0.0660
     33 H9          0.4087   -1.6888   -0.2955 H       1  NONAME1     0.0660
     34 H10         0.6082   -1.4201    1.4801 H       1  NONAME1     0.0660
     35 H11         2.4409   -5.2187   -0.4361 H       1  NONAME1     0.0660
     36 H12         2.3526   -5.2180    1.3680 H       1  NONAME1     0.0660
     37 H13         3.2243   -6.4921    0.5086 H       1  NONAME1     0.0660
     38 H14         7.8696   -9.8548    1.2194 H       1  NONAME1     0.0660
     39 H15         8.3382  -10.8249   -0.1732 H       1  NONAME1     0.0660
     40 H16         9.3043   -9.4006    0.2025 H       1  NONAME1     0.0660
@<TRIPOS>BOND
     1     1     2   ar
     2     2     3   ar
     3     3     4   ar
     4     4     5   ar
     5     5     6   ar
     6     1     6   ar
     7     7     8   ar
     8     8     9   ar
     9     9    10   ar
    10    10    11   ar
    11    11    12   ar
    12     7    12   ar
    13    13    14   ar
    14    14    15   ar
    15    15    16   ar
    16    13    11   ar
    17    16    12   ar
    18     9    17    2
    19     7     2    1
    20     6    18    1
    21     5    19    1
    22    16    20    1
    23    14    21    1
    24    22    21    1
    25    23    20    1
    26    24    19    1
    27     1    25    1
    28     3    26    1
    29     4    27    1
    30     8    28    1
    31    13    29    1
    32    15    30    1
    33    18    31    1
    34    22    32    1
    35    22    33    1
    36    22    34    1
    37    23    35    1
    38    23    36    1
    39    23    37    1
    40    24    38    1
    41    24    39    1
    42    24    40    1
